*  **********************************************
*  *               SPICE MODELS                 *
*  **********************************************
*
*    PROCESS :  0.18um CMOS (1P6M, 1.8V/3.3V)
*    MODEL   :  BSIM3 ( V3.2 )
*    VERSION :  1.11
*    DATE    :  May. 06, 2001
*    HSPICE VERSION: H98.2 & H98.4
*
********************************************************************************
******************************************************************************
*                                                                            *
*       IN THIS MODEL LIB CONTAINS :                                         *
*                                                                            *
*       1.LIB TT                                                             *
*             SS                                                             *
*             FF                                                             *
*             SF                                                             *
*             FS                                                             *
*        ( 1.8V Normal devices with different geometric and corner models)   *
*                                                                            *
*       2.LIB TT_3V                                                          *
*             SS_3V                                                          *
*             FF_3V                                                          *
*             SF_3V                                                          *
*             FS_3V                                                          *
*        ( 3.3V normal devices  with different geometric and corner models)  *
*                                                                            *
*                                                                            *
*       3.LIB TT_NA                                                          *
*             SS_NA                                                          *
*             FF_NA                                                          *
*             SF_NA                                                          *
*             FS_NA                                                          *
*        ( 1.8V native NMOS with different geometric and corner models)      *
*                                                                            *
*       4.LIB TT_3VNA                                                        *
*             SS_3VNA                                                        *
*             FF_3VNA                                                        *
*             SF_3VNA                                                        *
*             FS_3VNA                                                        *
*        ( 3.3V native NMOS with different geometric and corner models)      *
*                                                                            *
*       5.LIB BIP                                                            *
*        ( 1.8V P+/NW/PSUB 10x10, 5x5 and 2x2 vertical PNP bipolar )         *
*                                                                            *
*       6.LIB BIP3                                                           *
*        ( 3.3V P+/NW/PSUB 10x10, 5x5 and 2x2 vertical PNP bipolar )         *
*                                                                            *
*       7.LIB DIO                                                            *
*        ( 1.8V P+/NW , N+/PW & NW/PSUB diode )                              *
*                                                                            *
*       8.LIB DIO3                                                           *
*        ( 3.3V P+/NW , N+/PW & NW/PSUB diode )                              *
*                                                                            *
*       9.LIB RES                                                            *
*         (resist model)                                                     *
*                                                                            *
******************************************************************************
******************************************************************************
*                                                                            *
* 1)To use these models directly by programming in this style:               *
*                                                                            *
*     .lib 'lib_path/lib_name' model_name                                    *
*                                                                            *
*                                                                            *
*    EX: .lib '/home/user/log018.l' TT                                       *
*        for typical 1.8V N,PMOS                                             *
*        .lib '/home/user/log018.l' TT_3V                                    *
*        for typical 3.3V N,PMOS                                             *
*  note:                                                                     *
*      corner_name                                                           *
*       TT : typical model for 1.8V devices                                  *
*       SS : Slow NMOS Slow PMOS model for 1.8V devices                      *
*       FF : Fast NMOS Fast PMOS model for 1.8V devices                      *
*       SF : Slow NMOS Fast PMOS model for 1.8V devices                      *
*       FS : Fast NMOS Slow PMOS model for 1.8V devices                      *
*                                                                            *
*       TT_3V : typical model for 3.3V devices                               *
*       SS_3V : Slow NMOS Slow PMOS model for 3.3V devices                   *
*       FF_3V : Fast NMOS Fast PMOS model for 3.3V devices                   *
*       SF_3V : Slow NMOS Fast PMOS model for 3.3V devices                   *
*       FS_3V : Fast NMOS Slow PMOS model for 3.3V devices                   *
*                                                                            *
*       TT_NA : typical model for 1.8V native NMOS                           *
*       SS_NA : Slow NMOS for 1.8V native NMOS                               *
*       FF_NA : Fast NMOS for 1.8V native NMOS                               *
*       SF_NA : Slow NMOS for 1.8V native NMOS                               *
*       FS_NA : Fast NMOS for 1.8V native NMOS                               *
*                                                                            *
*       TT_3VNA : typical model for 3.3V native NMOS                         *
*       SS_3VNA : Slow NMOS for 3.3V native NMOS                             *
*       FF_3VNA : Fast NMOS for 3.3V native NMOS                             *
*       SF_3VNA : Slow NMOS for 3.3V native NMOS                             *
*       FS_3VNA : Fast NMOS for 3.3V native NMOS                             *
*                                                                            *
* 2)HDIF depends on your layout poly spacer to contact centre distance.      *
*   The value listed here is the minimum design rule value. You can change it*
*   according to your layout.                                                *
*                                                                            *
******************************************************************************
***************************************************************
*                                                             *
*                1.8V NORMAL DEVICES LIB                      *
*                                                             *
***************************************************************
***************** CORNER_LIB OF TYPICAL MODEL ***************
.LIB TT
.param
+toxn   = 4.08E-09        toxp   = 4.08E-09
+dvthn  = 0               dvthp  = 0
+dxl    = 0               dxw    = 0
+cjn    = 0.001000266     cjp    = 0.001121
+cjswn  = 2.040547E-10    cjswp  = 2.481E-10
+cjswgn = 3.340547E-10    cjswgp = 4.221E-10
+cgon   = 3.665E-10       cgop   = 3.28E-10
+hdifn  = 2E-07           hdifp  = 2E-07
.lib 'log018.l' MOS
.ENDL TT
***************** CORNER_LIB OF SNSP MODEL ***************
.LIB SS
.param
+toxn   = 4.213E-09       toxp   = 4.213E-09
+dvthn  = 0.1             dvthp  = -0.067
+dxl    = 1.33E-08        dxw    = -2.2E-08
+cjn    = 0.001050279     cjp    = 0.00117705
+cjswn  = 2.142574E-10    cjswp  = 2.60505E-10
+cjswgn = 3.507574E-10    cjswgp = 4.43205E-10
+cgon   = 3.48175E-10     cgop   = 3.116E-10
+hdifn  = 2E-07           hdifp  = 2E-07
.lib 'log018.l' MOS
.ENDL SS
***************** CORNER_LIB OF FNFP MODEL ***************
.LIB FF
.param
+toxn   = 3.947E-09       toxp   = 3.947E-09
+dvthn  = -0.1            dvthp  = 0.067
+dxl    = -1.33E-08       dxw    = 2.2E-08
+cjn    = 0.0009502527    cjp    = 0.00106495
+cjswn  = 1.93852E-10     cjswp  = 2.35695E-10
+cjswgn = 3.17352E-10     cjswgp = 4.00995E-10
+cgon   = 3.84825E-10     cgop   = 3.444E-10
+hdifn  = 2E-07           hdifp  = 2E-07
.lib 'log018.l' MOS
.ENDL FF
***************** CORNER_LIB OF SNFP MODEL ***************
.LIB SF
.param
+toxn   = 4.08E-09        toxp   = 4.08E-09
+dvthn  = 0.1             dvthp  = 0.067
+dxl    = 0               dxw    = 0
+cjn    = 0.001050279     cjp    = 0.00106495
+cjswn  = 2.142574E-10    cjswp  = 2.35695E-10
+cjswgn = 3.507574E-10    cjswgp = 4.00995E-10
+cgon   = 3.665E-10       cgop   = 3.28E-10
+hdifn  = 2E-07           hdifp  = 2E-07
.lib 'log018.l' MOS
.ENDL SF
***************** CORNER_LIB OF FNSP MODEL ***************
.LIB FS
.param
+toxn   = 4.08E-09        toxp   = 4.08E-09
+dvthn  = -0.1            dvthp  = -0.067
+dxl    = 0               dxw    = 0
+cjn    = 0.0009502527    cjp    = 0.00117705
+cjswn  = 1.93852E-10     cjswp  = 2.60505E-10
+cjswgn = 3.17352E-10     cjswgp = 4.43205E-10
+cgon   = 3.665E-10       cgop   = 3.28E-10
+hdifn  = 2E-07           hdifp  = 2E-07
.lib 'log018.l' MOS
.ENDL FS
***************************************************************
*                                                             *
*                3.3V NORMAL DEVICES LIB                      *
*                                                             *
***************************************************************
***************** CORNER_LIB OF TYPICAL MODEL ***************
.LIB TT_3V
.param
+toxn3   = 6.8E-09         toxp3   = 6.77E-09    toxe3= 6.98e-09
+dvthn3  = 0               dvthp3  = 0           dvthe3 = 0.0
+dxl3    = 0               dxw3    = 0
+cjn3    = 0.0008964788    cjp3    = 0.00103531  cje3 = 1.05363E-3
+cjswn3  = 2.50664E-10     cjswp3  = 2.23115E-10   cjswe3 = 3.36255E-10
+cjswgn3 = 3.00664E-10     cjswgp3 = 2.345762E-10  cjswge3 = 3.36255E-10
+cgon3   = 3.18E-10        cgop3   = 2.77E-10      cgoe3= 4.444E-10
+hdifn3  = 2E-07           hdifp3  = 2E-07         hdife3 = 1.50e-06
.lib 'log018.l' MOS_3V
.ENDL TT_3V
***************** CORNER_LIB OF SNSP MODEL ***************
.LIB SS_3V
.param
+toxn3   = 7.5E-09         toxp3   = 7.47E-09       toxe3= 7.68e-09
+dvthn3  = 0.1             dvthp3  = -0.1           dvthe3= 0.1
+dxl3    = 1.33E-08        dxw3    = -2.2E-08
+cjn3    = 0.0009413027    cjp3    = 0.001087076    cje3 = 1.10631E-3
+cjswn3  = 2.631972E-10    cjswp3  = 2.342708E-10   cjswe3 = 3.53068E-10
+cjswgn3 = 3.156972E-10    cjswgp3 = 2.46305E-10    cjswge3 = 3.53068E-10
+cgon3   = 3.021E-10       cgop3   = 2.6315E-10     cgoe3= 4.2218E-10
+hdifn3  = 2E-07           hdifp3  = 2E-07          hdife3 = 1.50e-06
.lib 'log018.l' MOS_3V
.ENDL SS_3V
***************** CORNER_LIB OF FNFP MODEL ***************
.LIB FF_3V
.param
+toxn3   = 6.1E-09         toxp3   = 6.07E-09       toxe3= 6.28e-09
+dvthn3  = -0.1            dvthp3  = 0.1            dvthe3= -0.1
+dxl3    = -1.33E-08       dxw3    = 2.2E-08
+cjn3    = 0.0008516549    cjp3    = 0.0009835445   cje3 = 1.00095E-3
+cjswn3  = 2.381308E-10    cjswp3  = 2.119593E-10   cjswe3 = 3.19442E-10
+cjswgn3 = 2.856308E-10    cjswgp3 = 2.228474E-10   cjswge3 = 3.19442E-10
+cgon3   = 3.339E-10       cgop3   = 2.9085E-10     cgoe3= 4.6662E-10
+hdifn3  = 2E-07           hdifp3  = 2E-07          hdife3 = 1.50e-06
.lib 'log018.l' MOS_3V
.ENDL FF_3V
***************** CORNER_LIB OF SNFP MODEL ***************
.LIB SF_3V
.param
+toxn3   = 6.8E-09         toxp3   = 6.77E-09       toxe3= 6.98e-09
+dvthn3  = 0.1             dvthp3  = 0.1            dvthe3= 0.1
+dxl3    = 0               dxw3    = 0
+cjn3    = 0.0009413027    cjp3    = 0.0009835445   cje3 = 1.10631E-3
+cjswn3  = 2.631972E-10    cjswp3  = 2.119593E-10   cjswe3 = 3.53068E-10
+cjswgn3 = 3.156972E-10    cjswgp3 = 2.228474E-10   cjswge3 = 3.53068E-10
+cgon3   = 3.18E-10        cgop3   = 2.77E-10       cgoe3= 4.444E-10
+hdifn3  = 2E-07           hdifp3  = 2E-07          hdife3 = 1.50e-06
.lib 'log018.l' MOS_3V
.ENDL SF_3V
***************** CORNER_LIB OF FNSP MODEL ***************
.LIB FS_3V
.param
+toxn3   = 6.8E-09         toxp3   = 6.77E-09       toxe3= 6.98e-09
+dvthn3  = -0.1            dvthp3  = -0.1           dvthe3= -0.1
+dxl3    = 0               dxw3    = 0
+cjn3    = 0.0008516549    cjp3    = 0.001087076    cje3 = 1.00095E-3
+cjswn3  = 2.381308E-10    cjswp3  = 2.342708E-10   cjswe3 = 3.19442E-10
+cjswgn3 = 2.856308E-10    cjswgp3 = 2.46305E-10    cjswge3 = 3.19442E-10
+cgon3   = 3.18E-10        cgop3   = 2.77E-10       cgoe3= 4.444E-10
+hdifn3  = 2E-07           hdifp3  = 2E-07          hdife3 = 1.50e-06
.lib 'log018.l' MOS_3V
.ENDL FS_3V
***************************************************************
*                                                             *
*               1.8V NATIVE NMOS LIB                          *
*                                                             *
***************************************************************
***************** CORNER_LIB OF TYPICAL MODEL ***************
.LIB TT_NA
.param
+toxna   = 4.08E-09        cjna    = 0.0001337865    cjswna  = 1.553397E-10
+cjswgna = 3.173876E-10    cgona   = 5.553E-10
+dvthna  = 0               hdifna  = 2E-07
+dxlna   = 0               dxwna   = 0
.lib 'log018.l' MOSNA
.ENDL TT_NA
***************** CORNER_LIB OF SNSP MODEL ***************
.LIB SS_NA
.param
+toxna   = 4.213E-09       cjna    = 0.0001404758    cjswna  = 1.631067E-10
+cjswgna = 3.33257E-10     cgona   = 5.27535E-10
+dvthna  = 0.08            hdifna  = 2E-07
+dxlna   = 1.33E-08        dxwna   = -2.2E-08
.lib 'log018.l' MOSNA
.ENDL SS_NA
***************** CORNER_LIB OF FNFP MODEL ***************
.LIB FF_NA
.param
+toxna   = 3.947E-09       cjna    = 0.0001270972    cjswna  = 1.475727E-10
+cjswgna = 3.015182E-10    cgona   = 5.83065E-10
+dvthna  = -0.08           hdifna  = 2E-07
+dxlna   = -1.33E-08       dxwna   = 2.2E-08
.lib 'log018.l' MOSNA
.ENDL FF_NA
***************** CORNER_LIB OF SNFP MODEL ***************
.LIB SF_NA
.param
+toxna   = 4.08E-09        cjna    = 0.0001404758    cjswna  = 1.631067E-10
+cjswgna = 3.33257E-10     cgona   = 5.553E-10
+dvthna  = 0.08            hdifna  = 2E-07
+dxlna   = 0               dxwna   = 0
.lib 'log018.l' MOSNA
.ENDL SF_NA
***************** CORNER_LIB OF FNSP MODEL ***************
.LIB FS_NA
.param
+toxna   = 4.08E-09        cjna    = 0.0001270972    cjswna  = 1.475727E-10
+cjswgna = 3.015182E-10    cgona   = 5.553E-10
+dvthna  = -0.08           hdifna  = 2E-07
+dxlna   = 0               dxwna   = 0
.lib 'log018.l' MOSNA
.ENDL FS_NA
***************************************************************
*                                                             *
*               3.3V NATIVE NMOS LIB                          *
*                                                             *
***************************************************************
***************** CORNER_LIB OF TYPICAL MODEL ***************
.LIB TT_3VNA
.param
+toxna3 = 6.8E-09         cjna3  = 0.0001247448    cjswna3= 1.458794E-10
+cjswgna3 = 3.180842E-10    cgona3   = 4.942E-10
+dvthna3  = 0               hdifna3  = 2E-08
+dxlna3    = 0              dxwna3    = 0
.lib 'log018.l' MOSNA3
.ENDL TT_3VNA
***************** CORNER_LIB OF SNSP MODEL ***************
.LIB SS_3VNA
.param
+toxna3 = 7.5E-09         cjna3  = 0.000130982     cjswna3= 1.531734E-10
+cjswgna3 = 3.339884E-10    cgona3   = 4.6949E-10
+dvthna3  = 0.1             hdifna3  = 2E-08
+dxlna3    = 1.33E-08       dxwna3    = -2.2E-08
.lib 'log018.l' MOSNA3
.ENDL SS_3VNA
***************** CORNER_LIB OF FNFP MODEL ***************
.LIB FF_3VNA
.param
+toxna3 = 6.1E-09         cjna3  = 0.0001185076    cjswna3= 1.385854E-10
+cjswgna3 = 3.0218E-10      cgona3   = 5.1891E-10
+dvthna3  = -0.1            hdifna3  = 2E-08
+dxlna3    = -1.33E-08      dxwna3    = 2.2E-08
.lib 'log018.l' MOSNA3
.ENDL FF_3VNA
***************** CORNER_LIB OF SNFP MODEL ***************
.LIB SF_3VNA
.param
+toxna3 = 6.8E-09         cjna3  = 0.000130982     cjswna3= 1.531734E-10
+cjswgna3 = 3.339884E-10    cgona3   = 4.942E-10
+dvthna3  = 0.1             hdifna3  = 2E-08
+dxlna3    = 0              dxwna3    = 0
.lib 'log018.l' MOSNA3
.ENDL SF_3VNA
***************** CORNER_LIB OF FNSP MODEL ***************
.LIB FS_3VNA
.param
+toxna3 = 6.8E-09         cjna3  = 0.0001185076    cjswna3= 1.385854E-10
+cjswgna3 = 3.0218E-10      cgona3   = 4.942E-10
+dvthna3  = -0.1            hdifna3  = 2E-08
+dxlna3    = 0              dxwna3    = 0
.lib 'log018.l' MOSNA3
.ENDL FS_3VNA

.LIB MOS
***************************************************************
*                                                             *
*               1.8V  MOS DEVICES MODEL                       *
*                                                             *
***************************************************************
*
.MODEL nch.1            NMOS   (                    LMIN     = '1.2E-06-dxl'
+LMAX    = 2.1E-05        WMIN     = '1.01E-05-dxw' WMAX     = 0.000101
+NOIMOD  = 3              EF       = 0.825          AF       = 0.8256         KF       = 4.000E-29
+LEVEL   = 49             TNOM     = 25             VERSION  = 3.2
+TOX     = toxn           XJ       = 1.6E-07        NCH      = 3.9E+17
+LLN     = -1             LWN      = 1              WLN      = 1
+WWN     = 1              LINT     = 1E-08          LL       = 0
+LW      = 0              LWL      = 0              WINT     = 1E-08
+WL      = 0              WW       = 0              WWL      = 0
+MOBMOD  = 1              BINUNIT  = 2              XL       = '-2E-08+dxl'
+XW      = '0+dxw'        DWG      = 0              DWB      = 0
+ACM     = 12             LDIF     = 9E-08          HDIF     = hdifn
+RSH     = 6.8            RD       = 0              RS       = 0
+VTH0    = '0.4452004+dvthn' LVTH0    = 4.083943E-08   WVTH0    = -1.48489E-07
+PVTH0   = 1.993185E-13   K1       = 0.5099412      LK1      = 3.668304E-08
+WK1     = 2.766093E-08   PK1      = -2.19267E-13   K2       = 0.01695608
+LK2     = -1.755245E-08  WK2      = -1.034945E-08  PK2      = 6.480148E-14
+K3      = 0              DVT0     = 0              DVT1     = 0
+DVT2    = 0              DVT0W    = 0              DVT1W    = 0
+DVT2W   = 0              NLX      = 0              W0       = 0
+K3B     = 0              VSAT     = 90659.09       LVSAT    = -0.006564545
+UA      = -7.469327E-10  LUA      = 2.025139E-16   WUA      = 1.830494E-15
+PUA     = -6.726249E-21  UB       = 2.910666E-18   LUB      = -1.955871E-25
+WUB     = -6.764042E-24  PUB      = 9.411708E-30   UC       = 1.641302E-10
+LUC     = -2.017381E-17  WUC      = -5.974077E-16  PUC      = 5.963958E-22
+RDSW    = 170            PRWB     = 0              PRWG     = 0
+WR      = 1              U0       = 0.04590562     LU0      = 3.578498E-09
+WU0     = -4.055627E-08  PU0      = -2.913943E-15  A0       = 0.2119483
+LA0     = -5.177149E-08  WA0      = 1.948019E-06   PA0      = -3.003349E-12
+KETA    = -0.005987795   LKETA    = -2.748571E-08  WKETA    = 1.97602E-07
+PKETA   = -1.586947E-13  A1       = 0              A2       = 0.99
+AGS     = 0.02           B0       = 0              B1       = 0
+VOFF    = -0.1498675     LVOFF    = 4.906377E-09   WVOFF    = 1.042303E-07
+PVOFF   = -1.550514E-13  NFACTOR  = 1              CIT      = -0.0001267591
+LCIT    = 2.665205E-10   CDSC     = 0              CDSCB    = 0
+CDSCD   = 0              ETA0     = 5E-05          ETAB     = -5E-05
+DSUB    = 0              PCLM     = 0.7736364      LPCLM    = 2.625818E-07
+PDIBLC1 = 1E-06          PDIBLC2  = 0.0003968181   LPDIBLC2 = 3.019691E-09
+PDIBLCB = 0.01           DROUT    = 0              PSCBE1   = 1.736364E+08
+LPSCBE1 = 262.5818       PSCBE2   = 1E-06          PVAG     = 0
+DELTA   = 0.01           ALPHA1   = 0.448150714    BETA0    = 11.59263
+KT1     = -0.2281038     LKT1     = 1.487402E-08   WKT1     = 4.09886E-08
+PKT1    = -1.499301E-13  KT2      = -0.02603289    LKT2     = 8.023716E-10
+WKT2    = -4.269E-08     PKT2     = -8.087905E-15  AT       = 20000
+UTE     = -1.606637      LUTE     = 4.379861E-08   WUTE     = 2.685053E-07
+PUTE    = -4.4149E-13    UA1      = 1.224E-09      UB1      = -1.459973E-18
+LUB1    = 5.961568E-25   WUB1     = 3.423235E-24   PUB1     = -6.00926E-30
+UC1     = -5.990395E-11  LUC1     = 1.037438E-16   WUC1     = 7.225532E-16
+PUC1    = -1.045737E-21  KT1L     = 0              PRT      = 0
+CJ      = cjn            PB       = 0.6882682      MJ       = 0.3595262
+CJSW    = cjswn          PBSW     = 0.6882682      MJSW     = 0.2003879
+CJSWG   = cjswgn         PBSWG    = 0.6882682      MJSWG    = 0.43879
+CGDO    = cgon           CGSO     = cgon           TCJ      = 0.001040287
+TCJSW   = 0.000645489    TCJSWG   = 0.000645489    TPB      = 0.001554306    TPBSW    = 0.001554306    TPBSWG   = 0.001554306
+JS      = 8.38E-06       JSW      = 1.6E-11
+XTI     = 3              CAPMOD   = 3              NQSMOD   = 0
+XPART   = 1              CF       = 0
+CALCACM  = 1
+ALPHA0   = 0             DLC      = 3E-9           LLC      = -0.039        )


.MODEL nch.2            NMOS   (                    LMIN     = '5E-07-dxl'
+LMAX    = '1.2E-06-dxl'  WMIN     = '1.01E-05-dxw' WMAX     = 0.000101
+NOIMOD  = 3              EF       = 0.825          AF       = 0.8256         KF       = 4.000E-29
+LEVEL   = 49             TNOM     = 25             VERSION  = 3.2
+TOX     = toxn           XJ       = 1.6E-07        NCH      = 3.9E+17
+LLN     = -1             LWN      = 1              WLN      = 1
+WWN     = 1              LINT     = 1E-08          LL       = 0
+LW      = 0              LWL      = 0              WINT     = 1E-08
+WL      = 0              WW       = 0              WWL      = 0
+MOBMOD  = 1              BINUNIT  = 2              XL       = '-2E-08+dxl'
+XW      = '0+dxw'        DWG      = 0              DWB      = 0
+ACM     = 12             LDIF     = 9E-08          HDIF     = hdifn
+RSH     = 6.8            RD       = 0              RS       = 0
+VTH0    = '0.4690217+dvthn' LVTH0    = 1.320675E-08   WVTH0    = 1.03913E-07
+PVTH0   = -9.346779E-14  K1       = 0.5348862      LK1      = 7.746888E-09
+WK1     = -3.099871E-08  PK1      = -1.512218E-13  K2       = 0.005167292
+LK2     = -3.877456E-09  WK2      = -3.134034E-09  PK2      = 5.643159E-14
+K3      = 0              DVT0     = 0              DVT1     = 0
+DVT2    = 0              DVT0W    = 0              DVT1W    = 0
+DVT2W   = 0              NLX      = 0              W0       = 0
+K3B     = 0              VSAT     = 85657.14       LVSAT    = -0.0007622857
+UA      = -4.439753E-10  LUA      = -1.489168E-16  WUA      = -5.953859E-15
+PUA     = 2.303602E-21   UB       = 2.349393E-18   LUB      = 4.554895E-25
+WUB     = 6.663095E-24   PUB      = -6.163771E-30  UC       = 9.496897E-11
+LUC     = 6.005324E-17   WUC      = 5.22306E-16    PUC      = -7.024722E-22
+RDSW    = 170            PRWB     = 0              PRWG     = 0
+WR      = 1              U0       = 0.04780528     LU0      = 1.374896E-09
+WU0     = -4.015433E-08  PU0      = -3.380197E-15  A0       = 0.1270388
+LA0     = 4.67235E-08    WA0      = -4.21675E-06   PA0      = 4.147783E-12
+KETA    = -0.02483604    LKETA    = -5.621754E-09  WKETA    = 8.9844E-08
+PKETA   = -3.369537E-14  A1       = 0              A2       = 0.99
+AGS     = 0.017056       LAGS     = 3.41504E-09    WAGS     = 2.946355E-07
+PAGS    = -3.417772E-13  B0       = 0              B1       = 0
+VOFF    = -0.1517648     LVOFF    = 7.107172E-09   WVOFF    = -1.044416E-07
+PVOFF   = 8.700798E-14   NFACTOR  = 1              CIT      = -0.0001578858
+LCIT    = 3.026274E-10   CDSC     = 0              CDSCB    = 0
+CDSCD   = 0              ETA0     = 1.714285E-05   LETA0    = 3.811429E-11
+ETAB    = -1.714285E-05  LETAB    = -3.811429E-11  DSUB     = 0
+PCLM    = 0.8685714      LPCLM    = 1.524572E-07   PDIBLC1  = 1E-06
+PDIBLC2 = 0.001685714    LPDIBLC2 = 1.524571E-09   PDIBLCB  = 0.01
+DROUT   = 0              PSCBE1   = 4E+08          PSCBE2   = 1E-06
+PVAG    = 0              DELTA    = 0.01           ALPHA1   = 0.448150714
+BETA0   = 11.59263       KT1      = -0.223624      LKT1     = 9.677446E-09
+WKT1    = -5.442481E-08  PKT1     = -3.925055E-14  KT2      = -0.02933674
+LKT2    = 4.634833E-09   WKT2     = -2.291865E-08  PKT2     = -3.102267E-14
+AT      = 20000          UTE      = -1.638485      LUTE     = 8.074134E-08
+WUTE    = 2.907924E-06   PUTE     = -3.503216E-12  UA1      = 1.223706E-09
+LUA1    = 3.415059E-19   WUA1     = 2.946371E-17   PUA1     = -3.417791E-23
+UB1     = -1.198842E-18  LUB1     = 2.932454E-25   WUB1     = 1.123821E-23
+PUB1    = -1.507463E-29  UC1      = 1.573038E-11   LUC1     = 1.600793E-17
+WUC1    = 5.277456E-16   PUC1     = -8.197604E-22  KT1L     = 0
+PRT     = 0              CJ       = cjn            PB       = 0.6882682
+MJ      = 0.3595262      CJSW     = cjswn          PBSW     = 0.6882682
+MJSW    = 0.2003879      CJSWG    = cjswgn         PBSWG    = 0.6882682
+MJSWG   = 0.43879        CGDO     = cgon           CGSO     = cgon
+TCJ     = 0.001040287    TCJSW    = 0.000645489    TCJSWG   = 0.000645489    TPB      = 0.001554306
+TPBSW   = 0.001554306    TPBSWG  = 0.001554306    JS       = 8.38E-06       JSW      = 1.6E-11
+XTI      = 3              CAPMOD   = 3
+NQSMOD  = 0              XPART    = 1              CF       = 0
+CALCACM  = 1
+ALPHA0   = 0              DLC      = 3E-9
+LLC     = -0.039        )


.MODEL nch.3            NMOS   (                    LMIN     = 1.8E-07
+LMAX    = '5E-07-dxl'    WMIN     = '1.01E-05-dxw' WMAX     = 0.000101
+NOIMOD  = 3              EF       = 0.825          AF       = 0.8256         KF       = 4.000E-29
+LEVEL   = 49             TNOM     = 25             VERSION  = 3.2
+TOX     = toxn           XJ       = 1.6E-07        NCH      = 3.9E+17
+LLN     = -1             LWN      = 1              WLN      = 1
+WWN     = 1              LINT     = 1E-08          LL       = 0
+LW      = 0              LWL      = 0              WINT     = 1E-08
+WL      = 0              WW       = 0              WWL      = 0
+MOBMOD  = 1              BINUNIT  = 2              XL       = '-2E-08+dxl'
+XW      = '0+dxw'        DWG      = 0              DWB      = 0
+ACM     = 12             LDIF     = 9E-08          HDIF     = hdifn
+RSH     = 6.8            RD       = 0              RS       = 0
+VTH0    = '0.4889706+dvthn' LVTH0    = 4.03025E-09    WVTH0    = -1.385044E-07
+PVTH0   = 1.804418E-14   K1       = 0.4620976      LK1      = 4.122966E-08
+WK1     = -5.300568E-07  PK1      = 7.834502E-14   K2       = 0.04110285
+LK2     = -2.040781E-08  WK2      = 1.839435E-07   PK2      = -2.962406E-14
+K3      = 0              DVT0     = 0              DVT1     = 0
+DVT2    = 0              DVT0W    = 0              DVT1W    = 0
+DVT2W   = 0              NLX      = 0              W0       = 0
+K3B     = 0              VSAT     = 84437.5        LVSAT    = -0.00020125
+UA      = -7.610477E-10  LUA      = -3.063457E-18  WUA      = -9.912273E-16
+PUA     = 2.079115E-23   UB       = 2.63488E-18    LUB      = 3.241653E-25
+WUB     = 2.452493E-25   PUB      = -3.211562E-30  UC       = 1.317473E-10
+LUC     = 4.313522E-17   WUC      = -1.501932E-16  PUC      = -3.931226E-22
+RDSW    = 170            PRWB     = 0              PRWG     = 0
+WR      = 1              U0       = 0.04633423     LU0      = 2.051578E-09
+WU0     = -2.998386E-08  PU0      = -8.05861E-15   A0       = 0.4302041
+LA0     = -9.273254E-08  WA0      = 1.113129E-06   PA0      = 1.696039E-12
+KETA    = -0.03103998    LKETA    = -2.76794E-09   WKETA    = -1.089419E-07
+PKETA   = 5.774615E-14   A1       = 0              A2       = 0.99
+AGS     = 0.04393999     LAGS     = -8.951599E-09  WAGS     = -6.445151E-07
+PAGS    = 9.023213E-14   B0       = 0              B1       = 0
+VOFF    = -0.1400894     LVOFF    = 1.736505E-09   WVOFF    = 1.566271E-07
+PVOFF   = -3.308362E-14  NFACTOR  = 1              CIT      = 0.0002665949
+LCIT    = 1.073664E-10   WCIT     = 5.374534E-11   PCIT     = -2.47229E-17
+CDSC    = 0              CDSCB    = 0              CDSCD    = 0
+ETA0    = -0.00029375    LETA0    = 1.81125E-10    ETAB     = 0.0013875
+LETAB   = -6.8425E-10    DSUB     = 0              PCLM     = 1.097804
+LPCLM   = 4.701011E-08   WPCLM    = 9.902701E-08   PPCLM    = -4.555247E-14
+PDIBLC1 = 1E-06          PDIBLC2  = -0.005937497   LPDIBLC2 = 5.03125E-09
+PDIBLCB = 0.01           DROUT    = 0              PSCBE1   = 4E+08
+PSCBE2  = 1E-06          PVAG     = 0              DELTA    = 0.01
+ALPHA1  = 0.448150714    BETA0    = 11.59263       KT1      = -0.2023527
+LKT1    = -1.073793E-10  WKT1     = -2.499313E-07  PKT1     = 5.068245E-14
+KT2     = -0.01509771    LKT2     = -1.915123E-09  WKT2     = -1.455392E-07
+PKT2    = 2.53828E-14    AT       = 20004.7        LAT      = -2.163157E-06
+WAT     = -4.740137E-05  PAT      = 2.180463E-11   UTE      = -1.46527
+LUTE    = 1.062595E-09   WUTE     = -6.227977E-06  PUTE     = 6.992989E-13
+UA1     = 1.224644E-09   LUA1     = -9.016052E-20  WUA1     = -6.445188E-17
+PUA1    = 9.023264E-24   UB1      = -8.07023E-19   LUB1     = 1.130082E-25
+WUB1    = -2.744663E-23  PUB1     = 2.720394E-30   UC1      = 9.072359E-12
+LUC1    = 1.907063E-17   WUC1     = -1.485916E-15  PUC1     = 1.065238E-22
+KT1L    = 0              PRT      = 0              CJ       = cjn
+PB      = 0.6882682      MJ       = 0.3595262      CJSW     = cjswn
+PBSW    = 0.6882682      MJSW     = 0.2003879      CJSWG    = cjswgn
+PBSWG   = 0.6882682      MJSWG    = 0.43879        CGDO     = cgon
+CGSO    = cgon           TCJ      = 0.001040287    TCJSW    = 0.000645489    TCJSWG   = 0.000645489
+TPB     = 0.001554306    TPBSW    = 0.001554306    TPBSWG   = 0.001554306    JS       = 8.38E-06
+JSW     = 1.6E-11        XTI      = 3
+CAPMOD  = 3              NQSMOD   = 0              XPART    = 1
+CF      = 0
+CALCACM = 1              ALPHA0   = 0
+DLC     = 3E-9           LLC      = -0.039        )


.MODEL nch.4            NMOS   (                    LMIN     = '1.2E-06-dxl'
+LMAX    = 2.1E-05        WMIN     = '1.3E-06-dxw'  WMAX     = '1.01E-05-dxw'
+NOIMOD  = 3              EF       = 0.825          AF       = 0.8256         KF       = 4.000E-29
+LEVEL   = 49             TNOM     = 25             VERSION  = 3.2
+TOX     = toxn           XJ       = 1.6E-07        NCH      = 3.9E+17
+LLN     = -1             LWN      = 1              WLN      = 1
+WWN     = 1              LINT     = 1E-08          LL       = 0
+LW      = 0              LWL      = 0              WINT     = 1E-08
+WL      = 0              WW       = 0              WWL      = 0
+MOBMOD  = 1              BINUNIT  = 2              XL       = '-2E-08+dxl'
+XW      = '0+dxw'        DWG      = 0              DWB      = 0
+ACM     = 12             LDIF     = 9E-08          HDIF     = hdifn
+RSH     = 6.8            RD       = 0              RS       = 0
+VTH0    = '0.4303551+dvthn' LVTH0    = 6.063544E-08   WVTH0    = 1.151582E-09
+PVTH0   = -2.252282E-16  K1       = 0.5079118      LK1      = 1.708006E-08
+WK1     = 4.811752E-08   PK1      = -2.166895E-14  K2       = 0.01749582
+LK2     = -1.215701E-08  WK2      = -1.579011E-08  PK2      = 1.041545E-14
+K3      = 0              DVT0     = 0              DVT1     = 0
+DVT2    = 0              DVT0W    = 0              DVT1W    = 0
+DVT2W   = 0              NLX      = 0              W0       = 0
+K3B     = 0              VSAT     = 90678.27       LVSAT    = -0.006755514
+WVSAT   = -0.0001932689  PVSAT    = 1.924963E-09   UA       = -5.334703E-10
+LUA     = -5.097949E-16  WUA      = -3.212069E-16  PUA      = 4.538242E-22
+UB      = 2.252485E-18   LUB      = 7.926502E-25   WUB      = -1.295807E-25
+PUB     = -5.497242E-31  UC       = 1.065297E-10   LUC      = 3.988117E-17
+WUC     = -1.679473E-17  PUC      = -8.958444E-24  RDSW     = 170
+PRWB    = 0              PRWG     = 0              WR       = 1
+U0      = 0.04281001     LU0      = 3.050399E-09   WU0      = -9.352497E-09
+PU0     = 2.409294E-15   A0       = 0.4075408      LA0      = -3.610417E-07
+WA0     = -2.355343E-08  PA0      = 1.140953E-13   KETA     = 0.01500895
+LKETA   = -4.536782E-08  WKETA    = -1.404518E-08  PKETA    = 2.155698E-14
+A1      = 0              A2       = 0.99           AGS      = 0.02
+B0      = 0              B1       = 0              VOFF     = -0.1395841
+LVOFF   = -1.091341E-08  WVOFF    = 5.73079E-10    PVOFF    = 4.41203E-15
+NFACTOR = 1              CIT      = -0.0001267591  LCIT     = 2.665205E-10
+CDSC    = 0              CDSCB    = 0              CDSCD    = 0
+ETA0    = 5E-05          ETAB     = -5E-05         DSUB     = 0
+PCLM    = 0.7755538      LPCLM    = 2.434849E-07   WPCLM    = -1.932694E-08
+PPCLM   = 1.924964E-13   PDIBLC1  = 1E-06          PDIBLC2  = 0.0003968181
+LPDIBLC2= 3.019691E-09   PDIBLCB  = 0.01           DROUT    = 0
+PSCBE1  = 1.736364E+08   LPSCBE1  = 262.5818       PSCBE2   = 1E-06
+PVAG    = 0              DELTA    = 0.01           ALPHA1   = 0.448150714
+BETA0   = 11.59263       KT1      = -0.2231153     LKT1     = -3.905888E-10
+WKT1    = -9.296202E-09  PKT1     = 3.937134E-15   KT2      = -0.03050068
+LKT2    = 4.543159E-10   WKT2     = 2.345302E-09   PKT2     = -4.579503E-15
+AT      = 20000          UTE      = -1.580575      LUTE     = 5.729051E-09
+WUTE    = 5.798076E-09   PUTE     = -5.774884E-14  UA1      = 1.224E-09
+UB1     = -1.059435E-18  LUB1     = -4.518781E-26  WUB1     = -6.141879E-25
+PUB1    = 4.554933E-31   UC1      = 2.59445E-11    LUC1     = -7.81201E-18
+WUC1    = -1.427992E-16  PUC1     = 7.874507E-23   KT1L     = 0
+PRT     = 0              CJ       = cjn            PB       = 0.6882682
+MJ      = 0.3595262      CJSW     = cjswn          PBSW     = 0.6882682
+MJSW    = 0.2003879      CJSWG    = cjswgn         PBSWG    = 0.6882682
+MJSWG   = 0.43879        CGDO     = cgon           CGSO     = cgon
+TCJ     = 0.001040287    TCJSW    = 0.000645489    TCJSWG   = 0.000645489    TPB      = 0.001554306
+TPBSW   = 0.001554306    TPBSWG  = 0.001554306    JS       = 8.38E-06       JSW      = 1.6E-11
+XTI      = 3              CAPMOD   = 3
+NQSMOD  = 0              XPART    = 1              CF       = 0
+CALCACM  = 1
+ALPHA0   = 0              DLC     = 3E-9
+LLC     = -0.039        )


.MODEL nch.5            NMOS   (                    LMIN     = '5E-07-dxl'
+LMAX    = '1.2E-06-dxl'  WMIN     = '1.3E-06-dxw'  WMAX     = '1.01E-05-dxw'
+NOIMOD  = 3              EF       = 0.825          AF       = 0.8256         KF       = 4.000E-29
+LEVEL   = 49             TNOM     = 25             VERSION  = 3.2
+TOX     = toxn           XJ       = 1.6E-07        NCH      = 3.9E+17
+LLN     = -1             LWN      = 1              WLN      = 1
+WWN     = 1              LINT     = 1E-08          LL       = 0
+LW      = 0              LWL      = 0              WINT     = 1E-08
+WL      = 0              WW       = 0              WWL      = 0
+MOBMOD  = 1              BINUNIT  = 2              XL       = '-2E-08+dxl'
+XW      = '0+dxw'        DWG      = 0              DWB      = 0
+ACM     = 12             LDIF     = 9E-08          HDIF     = hdifn
+RSH     = 6.8            RD       = 0              RS       = 0
+VTH0    = '0.4799766+dvthn' LVTH0    = 3.074509E-09   WVTH0    = -6.512545E-09
+PVTH0   = 8.665152E-15   K1       = 0.5324208      LK1      = -1.135038E-08
+WK1     = -6.147623E-09  PK1      = 4.127862E-14   K2       = 0.004003276
+LK2     = 3.494347E-09   WK2      = 8.599232E-09   PK2      = -1.787618E-14
+K3      = 0              DVT0     = 0              DVT1     = 0
+DVT2    = 0              DVT0W    = 0              DVT1W    = 0
+DVT2W   = 0              NLX      = 0              W0       = 0
+K3B     = 0              VSAT     = 85511.69       LVSAT    = -0.0007622857
+WVSAT   = 0.001466182    UA       = -1.023122E-09  LUA      = 5.820092E-17
+WUA     = -1.160614E-16  PUA      = 2.158555E-22   UB       = 3.043298E-18
+LUB     = -1.246927E-25  WUB      = -3.314691E-25  PUB      = -3.155337E-31
+UC      = 1.463423E-10   LUC      = -6.301452E-18  WUC      = 4.462591E-18
+PUC     = -3.361694E-23  RDSW     = 170            PRWB     = 0
+PRWG    = 0              WR       = 1              U0       = 0.04463334
+LU0     = 9.35341E-10    WU0      = -8.181137E-09  PU0      = 1.050515E-15
+A0      = -0.3045075     LA0      = 4.649343E-07   WA0      = 1.332365E-07
+PA0     = -6.778103E-14  KETA     = -0.01546816    LKETA    = -1.001437E-08
+WKETA   = -4.584175E-09  PKETA    = 1.058221E-14   A1       = 0
+A2      = 0.99           AGS      = 0.05010909     LAGS     = -3.492654E-08
+WAGS    = -3.853963E-08  PAGS     = 4.470598E-14   B0       = 0
+B1      = 0              VOFF     = -0.1628752     LVOFF    = 1.610426E-08
+WVOFF   = 7.551262E-09   PVOFF    = -3.68266E-15   NFACTOR  = 1
+CIT     = -0.0001578858  LCIT     = 3.026274E-10   CDSC     = 0
+CDSCB   = 0              CDSCD    = 0              ETA0     = 1.714286E-05
+LETA0   = 3.811428E-11   ETAB     = -1.714286E-05  LETAB    = -3.811428E-11
+DSUB    = 0              PCLM     = 0.8540259      LPCLM    = 1.524572E-07
+WPCLM   = 1.466183E-07   PDIBLC1  = 1E-06          PDIBLC2  = 0.001781299
+LPDIBLC2= 1.413693E-09   WPDIBLC2 = -9.634911E-10  PPDIBLC2 = 1.11765E-15
+PDIBLCB = 0.01           DROUT    = 0              PSCBE1   = 4E+08
+PSCBE2  = 1E-06          PVAG     = 0              DELTA    = 0.01
+ALPHA1  = 0.448150714    BETA0    = 11.59263       KT1      = -0.2285168
+LKT1    = 5.875238E-09   WKT1     = -5.105314E-09  PKT1     = -9.242955E-16
+KT2     = -0.03146011    LKT2     = 1.567252E-09   WKT2     = -1.515083E-09
+PKT2    = -1.014558E-16  AT       = 20000          UTE      = -1.303027
+LUTE    = -3.162274E-07  WUTE     = -4.734936E-07  PUTE     = 4.982295E-13
+UA1     = 1.227011E-09   LUA1     = -3.492674E-18  WUA1     = -3.853985E-18
+PUA1    = 4.470623E-24   UB1      = 9.605878E-20   LUB1     = -1.385561E-24
+WUB1    = -1.814396E-24  PUB1     = 1.847735E-30   UC1      = 8.797449E-11
+LUC1    = -7.976681E-17  WUC1     = -2.004749E-16  PUC1     = 1.456489E-22
+KT1L    = 0              PRT      = 0              CJ       = cjn
+PB      = 0.6882682      MJ       = 0.3595262      CJSW     = cjswn
+PBSW    = 0.6882682      MJSW     = 0.2003879      CJSWG    = cjswgn
+PBSWG   = 0.6882682      MJSWG    = 0.43879        CGDO     = cgon
+CGSO    = cgon           TCJ      = 0.001040287    TCJSW    = 0.000645489    TCJSWG   = 0.000645489
+TPB     = 0.001554306    TPBSW    = 0.001554306    TPBSWG   = 0.001554306    JS       = 8.38E-06
+JSW     = 1.6E-11        XTI      = 3
+CAPMOD  = 3              NQSMOD   = 0              XPART    = 1
+CF      = 0
+CALCACM = 1              ALPHA0   = 0
+DLC     = 3E-9           LLC     = -0.039         )


.MODEL nch.6            NMOS   (                    LMIN     = 1.8E-07
+LMAX    = '5E-07-dxl'    WMIN     = '1.3E-06-dxw'  WMAX     = '1.01E-05-dxw'
+NOIMOD  = 3              EF       = 0.825          AF       = 0.8256         KF       = 4.000E-29
+LEVEL   = 49             TNOM     = 25             VERSION  = 3.2
+TOX     = toxn           XJ       = 1.6E-07        NCH      = 3.9E+17
+LLN     = -1             LWN      = 1              WLN      = 1
+WWN     = 1              LINT     = 1E-08          LL       = 0
+LW      = 0              LWL      = 0              WINT     = 1E-08
+WL      = 0              WW       = 0              WWL      = 0
+MOBMOD  = 1              BINUNIT  = 2              XL       = '-2E-08+dxl'
+XW      = '0+dxw'        DWG      = 0              DWB      = 0
+ACM     = 12             LDIF     = 9E-08          HDIF     = hdifn
+RSH     = 6.8            RD       = 0              RS       = 0
+VTH0    = '0.4751247+dvthn' LVTH0    = 5.306376E-09   WVTH0    = 1.062077E-09
+PVTH0   = 5.180826E-15   K1       = 0.3998241      LK1      = 4.964413E-08
+WK1     = 9.765969E-08   PK1      = -6.472741E-15  K2       = 0.06352166
+LK2     = -2.388411E-08  WK2      = -4.203799E-08  PK2      = 5.416945E-15
+K3      = 0              DVT0     = 0              DVT1     = 0
+DVT2    = 0              DVT0W    = 0              DVT1W    = 0
+DVT2W   = 0              NLX      = 0              W0       = 0
+K3B     = 0              VSAT     = 84292.05       LVSAT    = -0.00020125
+WVSAT   = 0.001466182    UA       = -9.057631E-10  LUA      = 4.215886E-18
+WUA     = 4.675041E-16   PUA      = -5.258461E-23  UB       = 2.760486E-18
+LUB     = 5.400765E-27   WUB      = -1.020856E-24  PUB      = 1.584294E-33
+UC      = 1.234253E-10   LUC      = 4.240396E-18   WUC      = -6.630735E-17
+PUC     = -1.06277E-24   RDSW     = 170            PRWB     = 0
+PRWG    = 0              WR       = 1              U0       = 0.04387662
+LU0     = 1.283432E-09   WU0      = -5.211112E-09  PU0      = -3.156964E-16
+A0      = 0.5262759      LA0      = 8.277392E-08   WA0      = 1.447255E-07
+PA0     = -7.306591E-14  KETA     = -0.04428695    LKETA    = 3.242273E-09
+WKETA   = 2.458758E-08   PKETA    = -2.8368E-15    A1       = 0
+A2      = 0.99           AGS      = -0.02836364    LAGS     = 1.170909E-09
+WAGS    = 8.430546E-08   PAGS     = -1.180276E-14  B0       = 0
+B1      = 0              VOFF     = -0.1246745     LVOFF    = -1.468027E-09
+WVOFF   = 1.245329E-09   PVOFF    = -7.81931E-16   NFACTOR  = 1
+CIT     = 0.0002756616   LCIT     = 1.031957E-10   WCIT     = -3.764672E-11
+PCIT    = 1.731749E-17   CDSC     = 0              CDSCB    = 0
+CDSCD   = 0              ETA0     = -0.00029375    LETA0    = 1.81125E-10
+ETAB    = 0.0013875      LETAB    = -6.8425E-10    DSUB     = 0
+PCLM    = 1.102557       LPCLM    = 3.813286E-08   WPCLM    = 5.111752E-08
+PPCLM   = 4.393024E-14   PDIBLC1  = 1E-06          PDIBLC2  = -0.006146589
+LPDIBLC2= 5.060522E-09   WPDIBLC2 = 2.107634E-09   PPDIBLC2 = -2.950686E-16
+PDIBLCB = 0.01           DROUT    = 0              PSCBE1   = 4E+08
+PSCBE2  = 1E-06          PVAG     = 0              DELTA    = 0.01
+ALPHA1  = 0.448150714    BETA0    = 11.59263       KT1      = -0.2268918
+LKT1    = 5.127722E-09   WKT1     = -2.576878E-09  PKT1     = -2.087376E-15
+KT2     = -0.02937242    LKT2     = 6.06917E-10    WKT2     = -1.65007E-09
+PKT2    = -3.93619E-17   AT       = 20000          UTE      = -2.172423
+LUTE    = 8.369503E-08   WUTE     = 9.001274E-07   PUTE     = -1.336361E-13
+UA1     = 1.217414E-09   LUA1     = 9.220962E-19   WUA1     = 8.430593E-18
+PUA1    = -1.180283E-24  UB1      = -3.852224E-18  LUB1     = 4.306491E-25
+WUB1    = 3.248998E-24   PUB1     = -4.814262E-31  UC1      = -1.568814E-10
+LUC1    = 3.286692E-17   WUC1     = 1.868985E-16   PUC1     = -3.254285E-23
+KT1L    = 0              PRT      = 0              CJ       = cjn
+PB      = 0.6882682      MJ       = 0.3595262      CJSW     = cjswn
+PBSW    = 0.6882682      MJSW     = 0.2003879      CJSWG    = cjswgn
+PBSWG   = 0.6882682      MJSWG    = 0.43879        CGDO     = cgon
+CGSO    = cgon           TCJ      = 0.001040287    TCJSW    = 0.000645489    TCJSWG   = 0.000645489
+TPB     = 0.001554306    TPBSW    = 0.001554306    TPBSWG   = 0.001554306    JS       = 8.38E-06
+JSW     = 1.6E-11        XTI      = 3
+CAPMOD  = 3              NQSMOD   = 0              XPART    = 1
+CF      = 0
+CALCACM = 1              ALPHA0   = 0
+DLC     = 3E-9           LLC     = -0.039         )


.MODEL nch.7            NMOS   (                    LMIN     = '1.2E-06-dxl'
+LMAX    = 2.1E-05        WMIN     = '6E-07-dxw'    WMAX     = '1.3E-06-dxw'
+NOIMOD  = 3              EF       = 0.825          AF       = 0.8256         KF       = 4.000E-29
+LEVEL   = 49             TNOM     = 25             VERSION  = 3.2
+TOX     = toxn           XJ       = 1.6E-07        NCH      = 3.9E+17
+LLN     = -1             LWN      = 1              WLN      = 1
+WWN     = 1              LINT     = 1E-08          LL       = 0
+LW      = 0              LWL      = 0              WINT     = 1E-08
+WL      = 0              WW       = 0              WWL      = 0
+MOBMOD  = 1              BINUNIT  = 2              XL       = '-2E-08+dxl'
+XW      = '0+dxw'        DWG      = 0              DWB      = 0
+ACM     = 12             LDIF     = 9E-08          HDIF     = hdifn
+RSH     = 6.8            RD       = 0              RS       = 0
+VTH0    = '0.4337114+dvthn' LVTH0    = 6.675699E-08   WVTH0    = -3.144492E-09
+PVTH0   = -8.060817E-15  K1       = 0.5648248      LK1      = 2.192964E-08
+WK1     = -2.47311E-08   PK1      = -2.787642E-14  K2       = -0.0002770806
+LK2     = -9.479984E-09  WK2      = 6.959211E-09   PK2      = 6.988862E-15
+K3      = 0              DVT0     = 0              DVT1     = 0
+DVT2    = 0              DVT0W    = 0              DVT1W    = 0
+DVT2W   = 0              NLX      = 0              W0       = 0
+K3B     = 0              VSAT     = 90636.49       LVSAT    = -0.006339475
+WVSAT   = -0.0001398028  PVSAT    = 1.392434E-09   UA       = -9.356199E-10
+LUA     = -2.007095E-16  WUA      = 1.935446E-16   PUA      = 5.819503E-23
+UB      = 2.352719E-18   LUB      = 3.53453E-25    WUB      = -2.578803E-25
+PUB     = 1.244829E-32   UC       = 1.089601E-10   LUC      = 3.56231E-17
+WUC     = -1.990555E-17  PUC      = -3.508111E-24  RDSW     = 170
+PRWB    = 0              PRWG     = 0              WR       = 1
+U0      = 0.03490788     LU0      = 2.751226E-09   WU0      = 7.622277E-10
+PU0     = 2.792237E-15   A0       = 0.2937173      LA0      = -1.629362E-07
+WA0     = 1.221407E-07   PA0      = -1.394798E-13  KETA     = 0.003630752
+LKETA   = -2.766508E-08  WKETA    = 5.189081E-10   PKETA    = -1.102526E-15
+A1      = 0              A2       = 0.99           AGS      = 0.02
+B0      = 0              B1       = 0              VOFF     = -0.1393593
+LVOFF   = -1.120061E-09  WVOFF    = 2.853291E-10   PVOFF    = -8.123458E-15
+NFACTOR = 1              CIT      = -0.0001267591  LCIT     = 2.665205E-10
+CDSC    = 0              CDSCB    = 0              CDSCD    = 0
+ETA0    = 5E-05          ETAB     = -5E-05         DSUB     = 0
+PCLM    = 0.7713767      LPCLM    = 2.850888E-07   WPCLM    = -1.398026E-08
+PPCLM   = 1.392434E-13   PDIBLC1  = 1E-06          PDIBLC2  = 0.0003968183
+LPDIBLC2= 3.019691E-09   PDIBLCB  = 0.01           DROUT    = 0
+PSCBE1  = 1.736364E+08   LPSCBE1  = 262.5818       PSCBE2   = 1E-06
+PVAG    = 0              DELTA    = 0.01           ALPHA1   = 0.448150714
+BETA0   = 11.59263       KT1      = -0.2294805     LKT1     = -6.668915E-09
+WKT1    = -1.148684E-09  PKT1     = 1.197339E-14   KT2      = -0.02756653
+LKT2    = -3.983356E-09  WKT2     = -1.410404E-09  PKT2     = 1.100718E-15
+AT      = 20000          UTE      = -1.612465      LUTE     = -6.751966E-09
+WUTE    = 4.661704E-08   PUTE     = -4.177314E-14  UA1      = 1.224E-09
+UB1     = -1.546692E-18  LUB1     = 3.371048E-25   WUB1     = 9.500769E-27
+PUB1    = -3.38413E-32   UC1      = -7.376004E-11  LUC1     = 4.105292E-17
+WUC1    = -1.517736E-17  PUC1     = 1.619797E-23   KT1L     = 0
+PRT     = 0              CJ       = cjn            PB       = 0.6882682
+MJ      = 0.3595262      CJSW     = cjswn          PBSW     = 0.6882682
+MJSW    = 0.2003879      CJSWG    = cjswgn         PBSWG    = 0.6882682
+MJSWG   = 0.43879        CGDO     = cgon           CGSO     = cgon
+TCJ     = 0.001040287    TCJSW    = 0.000645489    TCJSWG   = 0.000645489    TPB      = 0.001554306
+TPBSW   = 0.001554306    TPBSWG  = 0.001554306    JS       = 8.38E-06       JSW      = 1.6E-11
+XTI      = 3              CAPMOD   = 3
+NQSMOD  = 0              XPART    = 1              CF       = 0
+CALCACM  = 1
+ALPHA0   = 0              DLC      = 3E-9
+LLC     = -0.039        )


.MODEL nch.8            NMOS   (                    LMIN     = '5E-07-dxl'
+LMAX    = '1.2E-06-dxl'  WMIN     = '6E-07-dxw'    WMAX     = '1.3E-06-dxw'
+NOIMOD  = 3              EF       = 0.825          AF       = 0.8256         KF       = 4.000E-29
+LEVEL   = 49             TNOM     = 25             VERSION  = 3.2
+TOX     = toxn           XJ       = 1.6E-07        NCH      = 3.9E+17
+LLN     = -1             LWN      = 1              WLN      = 1
+WWN     = 1              LINT     = 1E-08          LL       = 0
+LW      = 0              LWL      = 0              WINT     = 1E-08
+WL      = 0              WW       = 0              WWL      = 0
+MOBMOD  = 1              BINUNIT  = 2              XL       = '-2E-08+dxl'
+XW      = '0+dxw'        DWG      = 0              DWB      = 0
+ACM     = 12             LDIF     = 9E-08          HDIF     = hdifn
+RSH     = 6.8            RD       = 0              RS       = 0
+VTH0    = '0.4808935+dvthn' LVTH0    = 1.202573E-08   WVTH0    = -7.686219E-09
+PVTH0   = -2.792416E-15  K1       = 0.5770396      LK1      = 7.760477E-09
+WK1     = -6.325968E-08  PK1      = 1.681673E-14   K2       = -0.005123796
+LK2     = -3.857791E-09  WK2      = 2.028189E-08   PK2      = -8.465442E-15
+K3      = 0              DVT0     = 0              DVT1     = 0
+DVT2    = 0              DVT0W    = 0              DVT1W    = 0
+DVT2W   = 0              NLX      = 0              W0       = 0
+K3B     = 0              VSAT     = 85828.57       LVSAT    = -0.0007622857
+WVSAT   = 0.001060571    UA       = -1.424596E-09  LUA      = 3.665024E-16
+WUA     = 3.978251E-16   PUA      = -1.787704E-22  UB       = 3.028664E-18
+LUB     = -4.306433E-25  WUB      = -3.127378E-25  PUB      = 7.608303E-32
+UC      = 1.63363E-10    LUC      = -2.748434E-17  WUC      = -1.732388E-17
+PUC     = -6.502839E-24  RDSW     = 170            PRWB     = 0
+PRWG    = 0              WR       = 1              U0       = 0.03449604
+LU0     = 3.228961E-09   WU0      = 4.794603E-09   PU0      = -1.885319E-15
+A0      = -0.2092096     LA0      = 4.20459E-07    WA0      = 1.12553E-08
+PA0     = -1.085273E-14  KETA     = -0.01817785    LKETA    = -2.367101E-09
+WKETA   = -1.115772E-09  PKETA    = 7.937026E-16   A1       = 0
+A2      = 0.99           AGS      = 0.02           B0       = 0
+B1      = 0              VOFF     = -0.1488233     LVOFF    = 9.858188E-09
+WVOFF   = -1.043516E-08  PVOFF    = 4.31231E-15    NFACTOR  = 1
+CIT     = -0.0001578858  LCIT     = 3.026274E-10   CDSC     = 0
+CDSCB   = 0              CDSCD    = 0              ETA0     = 1.714285E-05
+LETA0   = 3.811429E-11   ETAB     = -1.714285E-05  LETAB    = -3.811429E-11
+DSUB    = 0              PCLM     = 0.9401633      LPCLM    = 8.929624E-08
+WPCLM   = 3.636246E-08   PPCLM    = 8.084588E-14   PDIBLC1  = 1E-06
+PDIBLC2 = 0.001028572    LPDIBLC2 = 2.286857E-09   PDIBLCB  = 0.01
+DROUT   = 0              PSCBE1   = 4E+08          PSCBE2   = 1E-06
+PVAG    = 0              DELTA    = 0.01           ALPHA1   = 0.448150714
+BETA0   = 11.59263       KT1      = -0.2414929     LKT1     = 7.265427E-09
+WKT1    = 1.150402E-08   PKT1     = -2.703738E-15  KT2      = -0.03334108
+LKT2    = 2.715118E-09   WKT2     = 8.925629E-10   PKT2     = -1.570723E-15
+AT      = 20000          UTE      = -1.86406       LUTE     = 2.85098E-07
+WUTE    = 2.44629E-07    PUTE     = -2.71467E-13   UA1      = 1.224E-09
+UB1     = -1.864369E-18  LUB1     = 7.05611E-25    WUB1     = 6.949518E-25
+PUB1    = -8.289646E-31  UC1      = -1.092616E-10  LUC1     = 8.223476E-17
+WUC1    = 5.198735E-17   PUC1     = -6.171309E-23  KT1L     = 0
+PRT     = 0              CJ       = cjn            PB       = 0.6882682
+MJ      = 0.3595262      CJSW     = cjswn          PBSW     = 0.6882682
+MJSW    = 0.2003879      CJSWG    = cjswgn         PBSWG    = 0.6882682
+MJSWG   = 0.43879        CGDO     = cgon           CGSO     = cgon
+TCJ     = 0.001040287    TCJSW    = 0.000645489    TCJSWG   = 0.000645489    TPB      = 0.001554306
+TPBSW   = 0.001554306    TPBSWG  = 0.001554306    JS       = 8.38E-06       JSW      = 1.6E-11
+XTI      = 3              CAPMOD   = 3
+NQSMOD  = 0              XPART    = 1              CF       = 0
+CALCACM  = 1
+ALPHA0   = 0              DLC      = 3E-9
+LLC     = -0.039        )


.MODEL nch.9            NMOS   (                    LMIN     = 1.8E-07
+LMAX    = '5E-07-dxl'    WMIN     = '6E-07-dxw'    WMAX     = '1.3E-06-dxw'
+NOIMOD  = 3              EF       = 0.825          AF       = 0.8256         KF       = 4.000E-29
+LEVEL   = 49             TNOM     = 25             VERSION  = 3.2
+TOX     = toxn           XJ       = 1.6E-07        NCH      = 3.9E+17
+LLN     = -1             LWN      = 1              WLN      = 1
+WWN     = 1              LINT     = 1E-08          LL       = 0
+LW      = 0              LWL      = 0              WINT     = 1E-08
+WL      = 0              WW       = 0              WWL      = 0
+MOBMOD  = 1              BINUNIT  = 2              XL       = '-2E-08+dxl'
+XW      = '0+dxw'        DWG      = 0              DWB      = 0
+ACM     = 12             LDIF     = 9E-08          HDIF     = hdifn
+RSH     = 6.8            RD       = 0              RS       = 0
+VTH0    = '0.481488+dvthn' LVTH0    = 1.17523E-08    WVTH0    = -7.082873E-09
+PVTH0   = -3.069955E-15  K1       = 0.4891953      LK1      = 4.816888E-08
+WK1     = -1.673544E-08  PK1      = -4.58442E-15   K2       = 0.0302083
+LK2     = -2.011056E-08  WK2      = 6.031026E-10   PK2      = 5.867986E-16
+K3      = 0              DVT0     = 0              DVT1     = 0
+DVT2    = 0              DVT0W    = 0              DVT1W    = 0
+DVT2W   = 0              NLX      = 0              W0       = 0
+K3B     = 0              VSAT     = 84637.98       LVSAT    = -0.0002146133
+WVSAT   = 0.001023387    PVSAT    = 1.710496E-11   UA       = -5.066291E-10
+LUA     = -5.57622E-17   WUA      = -4.338739E-17  PUA      = 2.418733E-23
+UB      = 1.984037E-18   LUB      = 4.988523E-26   WUB      = -2.700116E-26
+PUB     = -5.535582E-32  UC       = 7.191223E-11   LUC      = 1.458302E-17
+WUC     = -3.706532E-19  PUC      = -1.430133E-23  RDSW     = 170
+PRWB    = 0              PRWG     = 0              WR       = 1
+U0      = 0.04022617     LU0      = 5.931013E-10   WU0      = -5.385397E-10
+PU0     = 5.679271E-16   A0       = 0.5373152      LA0      = 7.705761E-08
+WA0     = 1.305951E-07   PA0      = -6.574904E-14  KETA     = -0.02712423
+LKETA   = 1.748234E-09   WKETA    = 2.6193E-09     PKETA    = -9.244303E-16
+A1      = 0              A2       = 0.99           AGS      = 0.03866202
+LAGS    = -8.58453E-09   WAGS     = -1.487385E-09  PAGS     = 6.841983E-16
+B0      = 0              B1       = 0              VOFF     = -0.1276647
+LVOFF   = 1.252623E-10   WVOFF    = 5.072778E-09   PVOFF    = -2.821342E-15
+NFACTOR = 1              CIT      = 0.0002127283   LCIT     = 1.32145E-10
+WCIT    = 4.290785E-11   PCIT     = -1.973761E-17  CDSC     = 0
+CDSCB   = 0              CDSCD    = 0              ETA0     = -0.0003198954
+LETA0   = 1.931519E-10   WETA0    = 3.346616E-11   PETA0    = -1.539446E-17
+ETAB    = 0.001419582    LETAB    = -6.990077E-10  WETAB    = -4.106481E-11
+PETAB   = 1.888986E-17   DSUB     = 0              PCLM     = 0.9740778
+LPCLM   = 7.369557E-08   WPCLM    = 2.155709E-07   PPCLM    = -1.590029E-15
+PDIBLC1 = 1E-06          PDIBLC2  = -0.003529964   LPDIBLC2 = 4.383784E-09
+WPDIBLC2= -1.241645E-09  PPDIBLC2 = 5.711567E-16   PDIBLCB  = 0.01
+DROUT   = 0              PSCBE1   = 4E+08          PSCBE2   = 1E-06
+PVAG    = 0              DELTA    = 0.01           ALPHA1   = 0.448150714
+BETA0   = 11.59263       KT1      = -0.2299624     LKT1     = 1.961425E-09
+WKT1    = 1.35353E-09    PKT1     = 1.965485E-15   KT2      = -0.02660687
+LKT2    = -3.826203E-10  WKT2     = -5.189979E-09  PKT2     = 1.227246E-15
+AT      = 20000          UTE      = -1.094227      LUTE     = -6.902506E-08
+WUTE    = -4.799637E-07  PUTE     = 6.184562E-14   UA1      = 1.224E-09
+UB1     = -5.722656E-20  LUB1     = -1.256748E-25  WUB1     = -1.608598E-24
+PUB1    = 2.306684E-31   UC1      = 1.072241E-10   LUC1     = -1.734869E-17
+WUC1    = -1.511566E-16  PUC1     = 3.173314E-23   KT1L     = 0
+PRT     = 0              CJ       = cjn            PB       = 0.6882682
+MJ      = 0.3595262      CJSW     = cjswn          PBSW     = 0.6882682
+MJSW    = 0.2003879      CJSWG    = cjswgn         PBSWG    = 0.6882682
+MJSWG   = 0.43879        CGDO     = cgon           CGSO     = cgon
+TCJ     = 0.001040287    TCJSW    = 0.000645489    TCJSWG   = 0.000645489    TPB      = 0.001554306
+TPBSW   = 0.001554306    TPBSWG  = 0.001554306    JS       = 8.38E-06       JSW      = 1.6E-11
+XTI      = 3              CAPMOD   = 3
+NQSMOD  = 0              XPART    = 1              CF       = 0
+CALCACM  = 1
+ALPHA0   = 0              DLC      = 3E-9
+LLC     = -0.039        )


.MODEL nch.10           NMOS   (                    LMIN     = '1.2E-06-dxl'
+LMAX    = 2.1E-05        WMIN     = 2.2E-07        WMAX     = '6E-07-dxw'
+NOIMOD  = 3              EF       = 0.825          AF       = 0.8256         KF       = 4.000E-29
+LEVEL   = 49             TNOM     = 25             VERSION  = 3.2
+TOX     = toxn           XJ       = 1.6E-07        NCH      = 3.9E+17
+LLN     = -1             LWN      = 1              WLN      = 1
+WWN     = 1              LINT     = 1E-08          LL       = 0
+LW      = 0              LWL      = 0              WINT     = 1E-08
+WL      = 0              WW       = 0              WWL      = 0
+MOBMOD  = 1              BINUNIT  = 2              XL       = '-2E-08+dxl'
+XW      = '0+dxw'        DWG      = 0              DWB      = 0
+ACM     = 12             LDIF     = 9E-08          HDIF     = hdifn
+RSH     = 6.8            RD       = 0              RS       = 0
+VTH0    = '0.4352488+dvthn' LVTH0    = 5.971231E-08   WVTH0    = -4.036178E-09
+PVTH0   = -3.974899E-15  K1       = 0.5279656      LK1      = -6.041289E-08
+WK1     = -3.352767E-09  PK1      = 1.988225E-14   K2       = 0.01424122
+LK2     = 1.937711E-08   WK2      = -1.461409E-09  PK2      = -9.748253E-15
+K3      = 0              DVT0     = 0              DVT1     = 0
+DVT2    = 0              DVT0W    = 0              DVT1W    = 0
+DVT2W   = 0              NLX      = 0              W0       = 0
+K3B     = 0              VSAT     = 90518.48       LVSAT    = -0.005164109
+WVSAT   = -7.135755E-05  PVSAT    = 7.107215E-10   UA       = -5.753777E-10
+LUA     = -1.265512E-16  WUA      = -1.539588E-17  PUA      = 1.51832E-23
+UB      = 1.668276E-18   LUB      = 7.517433E-25   WUB      = 1.390964E-25
+PUB     = -2.185601E-31  UC       = 6.614737E-11   LUC      = 6.744323E-17
+WUC     = 4.925809E-18   PUC      = -2.196379E-23  RDSW     = 170
+PRWB    = 0              PRWG     = 0              WR       = 1
+U0      = 0.03449046     LU0      = 9.712911E-09   WU0      = 1.004335E-09
+PU0     = -1.245541E-15  A0       = 0.5242422      LA0      = -4.198011E-07
+WA0     = -1.156377E-08  PA0      = 9.501862E-15   KETA     = 0.005068241
+LKETA   = -3.031378E-08  WKETA    = -3.148353E-10  PKETA    = 4.337169E-16
+A1      = 0              A2       = 0.99           AGS      = 0.02
+B0      = 0              B1       = 0              VOFF     = -0.1357364
+LVOFF   = -1.936854E-08  WVOFF    = -1.81595E-09   PVOFF    = 2.46066E-15
+NFACTOR = 1              CIT      = -0.000126513   LCIT     = 2.640698E-10
+WCIT    = -1.427138E-13  PCIT     = 1.421443E-18   CDSC     = 0
+CDSCB   = 0              CDSCD    = 0              ETA0     = 5E-05
+ETAB    = -5E-05         DSUB     = 0              PCLM     = 0.7595757
+LPCLM   = 4.026256E-07   WPCLM    = -7.135753E-09  PPCLM    = 7.107208E-14
+PDIBLC1 = 1E-06          PDIBLC2  = 0.0003968181   LPDIBLC2 = 3.019691E-09
+PDIBLCB = 0.01           DROUT    = 0              PSCBE1   = 1.736364E+08
+LPSCBE1 = 262.5818       PSCBE2   = 1E-06          PVAG     = 0
+DELTA   = 0.01           ALPHA1   = 0.448150714    BETA0    = 11.59263
+KT1     = -0.2400692     LKT1     = 1.973544E-08   WKT1     = 4.992732E-09
+PKT1    = -3.341133E-15  KT2      = -0.03543628    LKT2     = -3.00608E-09
+WKT2    = 3.15405E-09    PKT2     = 5.338977E-16   AT       = 20000
+UTE     = -1.574903      LUTE     = -5.076592E-08  WUTE     = 2.483101E-08
+PUTE    = -1.624505E-14  UA1      = 1.224E-09      UB1      = -1.457473E-18
+LUB1    = 2.445644E-25   WUB1     = -4.224631E-26  PUB1     = 1.983214E-32
+UC1     = -7.225825E-11  LUC1     = 5.984138E-17   WUC1     = -1.60484E-17
+PUC1    = 5.300662E-24   KT1L     = 0              PRT      = 0
+CJ      = cjn            PB       = 0.6882682      MJ       = 0.3595262
+CJSW    = cjswn          PBSW     = 0.6882682      MJSW     = 0.2003879
+CJSWG   = cjswgn         PBSWG    = 0.6882682      MJSWG    = 0.43879
+CGDO    = cgon           CGSO     = cgon           TCJ      = 0.001040287
+TCJSW   = 0.000645489    TCJSWG   = 0.000645489    TPB      = 0.001554306    TPBSW    = 0.001554306    TPBSWG   = 0.001554306
+JS      = 8.38E-06       JSW      = 1.6E-11
+XTI     = 3              CAPMOD   = 3              NQSMOD   = 0
+XPART   = 1              CF       = 0
+CALCACM  = 1
+ALPHA0   = 0              DLC      = 3E-9          LLC     = -0.039             )


.MODEL nch.11           NMOS   (                    LMIN     = '5E-07-dxl'
+LMAX    = '1.2E-06-dxl'  WMIN     = 2.2E-07        WMAX     = '6E-07-dxw'
+NOIMOD  = 3              EF       = 0.825          AF       = 0.8256         KF       = 4.000E-29
+LEVEL   = 49             TNOM     = 25             VERSION  = 3.2
+TOX     = toxn           XJ       = 1.6E-07        NCH      = 3.9E+17
+LLN     = -1             LWN      = 1              WLN      = 1
+WWN     = 1              LINT     = 1E-08          LL       = 0
+LW      = 0              LWL      = 0              WINT     = 1E-08
+WL      = 0              WW       = 0              WWL      = 0
+MOBMOD  = 1              BINUNIT  = 2              XL       = '-2E-08+dxl'
+XW      = '0+dxw'        DWG      = 0              DWB      = 0
+ACM     = 12             LDIF     = 9E-08          HDIF     = hdifn
+RSH     = 6.8            RD       = 0              RS       = 0
+VTH0    = '0.4879968+dvthn' LVTH0    = -1.475447E-09  WVTH0    = -1.180615E-08
+PVTH0   = 5.03827E-15    K1       = 0.4182783      LK1      = 6.682436E-08
+WK1     = 2.882188E-08   PK1      = -1.744033E-14  K2       = 0.05724643
+LK2     = -3.050892E-08  WK2      = -1.589285E-08  PK2      = 6.992215E-15
+K3      = 0              DVT0     = 0              DVT1     = 0
+DVT2    = 0              DVT0W    = 0              DVT1W    = 0
+DVT2W   = 0              NLX      = 0              W0       = 0
+K3B     = 0              VSAT     = 86745.34       LVSAT    = -0.0007872646
+WVSAT   = 0.0005288439   PVSAT    = 1.448774E-11   UA       = -7.371595E-10
+LUA     = 6.111558E-17   WUA      = -8.878959E-19  PUA      = -1.646058E-24
+UB      = 2.570856E-18   LUB      = -2.952486E-25  WUB      = -4.720896E-26
+PUB     = -2.445921E-33  UC       = 1.484849E-10   LUC      = -2.806833E-17
+WUC     = -8.694588E-18  PUC      = -6.164128E-24  RDSW     = 170
+PRWB    = 0              PRWG     = 0              WR       = 1
+U0      = 0.04425179     LU0      = -1.610234E-09  WU0      = -8.637309E-10
+PU0     = 9.214146E-16   A0       = -0.08643652    LA0      = 2.885862E-07
+WA0     = -5.995313E-08  PA0      = 6.563351E-14   KETA     = -0.0159613
+LKETA   = -5.919509E-09  WKETA    = -2.401372E-09  PKETA    = 2.854099E-15
+A1      = 0              A2       = 0.99           AGS      = 0.02
+B0      = 0              B1       = 0              VOFF     = -0.169209
+LVOFF   = 1.945972E-08   WVOFF    = 1.388564E-09   PVOFF    = -1.256577E-15
+NFACTOR = 1              CIT      = -0.000160979   LCIT     = 3.040503E-10
+WCIT    = 1.794118E-12   PCIT     = -8.252955E-19  CDSC     = 0
+CDSCB   = 0              CDSCD    = 0              ETA0     = 1.714286E-05
+LETA0   = 3.811428E-11   ETAB     = -1.714286E-05  LETAB    = -3.811428E-11
+DSUB    = 0              PCLM     = 0.9751641      LPCLM    = 1.525431E-07
+WPCLM   = 1.606201E-08   PPCLM    = 4.416267E-14   PDIBLC1  = 1E-06
+PDIBLC2 = 0.001663438    LPDIBLC2 = 1.550412E-09   WPDIBLC2 = -3.682228E-10
+PPDIBLC2= 4.271384E-16   PDIBLCB  = 0.01           DROUT    = 0
+PSCBE1  = 4E+08          PSCBE2   = 1E-06          PVAG     = 0
+DELTA   = 0.01           ALPHA1   = 0.448150714    BETA0    = 11.59263
+KT1     = -0.2410275     LKT1     = 2.084706E-08   WKT1     = 1.123407E-08
+PKT1    = -1.058109E-14  KT2      = -0.04000202    LKT2     = 2.290172E-09
+WKT2    = 4.755906E-09   PKT2     = -1.324255E-15  AT       = 20000
+UTE     = -1.473219      LUTE     = -1.687192E-07  WUTE     = 1.794131E-08
+PUTE    = -8.253005E-15  UA1      = 1.224E-09      UB1      = -5.006146E-19
+LUB1    = -8.653909E-25  WUB1     = -9.602595E-26  PUB1     = 8.221649E-32
+UC1     = 4.363964E-11   LUC1     = -7.460019E-17  WUC1     = -3.669539E-17
+PUC1    = 2.925118E-23   KT1L     = 0              PRT      = 0
+CJ      = cjn            PB       = 0.6882682      MJ       = 0.3595262
+CJSW    = cjswn          PBSW     = 0.6882682      MJSW     = 0.2003879
+CJSWG   = cjswgn         PBSWG    = 0.6882682      MJSWG    = 0.43879
+CGDO    = cgon           CGSO     = cgon           TCJ      = 0.001040287
+TCJSW   = 0.000645489    TCJSWG   = 0.000645489    TPB      = 0.001554306    TPBSW    = 0.001554306    TPBSWG   = 0.001554306
+JS      = 8.38E-06       JSW      = 1.6E-11
+XTI     = 3              CAPMOD   = 3              NQSMOD   = 0
+XPART   = 1              CF       = 0
+CALCACM  = 1
+ALPHA0   = 0             DLC      = 3E-9           LLC      = -0.039            )


.MODEL nch.12           NMOS   (                    LMIN     = 1.8E-07
+LMAX    = '5E-07-dxl'    WMIN     = 2.2E-07        WMAX     = '6E-07-dxw'
+NOIMOD  = 3              EF       = 0.825          AF       = 0.8256         KF       = 4.000E-29
+LEVEL   = 49             TNOM     = 25             VERSION  = 3.2
+TOX     = toxn           XJ       = 1.6E-07        NCH      = 3.9E+17
+LLN     = -1             LWN      = 1              WLN      = 1
+WWN     = 1              LINT     = 1E-08          LL       = 0
+LW      = 0              LWL      = 0              WINT     = 1E-08
+WL      = 0              WW       = 0              WWL      = 0
+MOBMOD  = 1              BINUNIT  = 2              XL       = '-2E-08+dxl'
+XW      = '0+dxw'        DWG      = 0              DWB      = 0
+ACM     = 12             LDIF     = 9E-08          HDIF     = hdifn
+RSH     = 6.8            RD       = 0              RS       = 0
+VTH0    = '0.4736658+dvthn' LVTH0    = 5.116823E-09   WVTH0    = -2.546044E-09
+PVTH0   = 7.786215E-16   K1       = 0.4916317      LK1      = 3.308183E-08
+WK1     = -1.814856E-08  PK1      = 4.166068E-15   K2       = 0.0241211
+LK2     = -1.527126E-08  WK2      = 4.133682E-09   PK2      = -2.219989E-15
+K3      = 0              DVT0     = 0              DVT1     = 0
+DVT2    = 0              DVT0W    = 0              DVT1W    = 0
+DVT2W   = 0              NLX      = 0              W0       = 0
+K3B     = 0              VSAT     = 85478.73       LVSAT    = -0.0002046202
+WVSAT   = 0.0005357541   PVSAT    = 1.130901E-11   UA       = -6.551957E-10
+LUA     = 2.341229E-17   WUA      = 4.278126E-17   PUA      = -2.173387E-23
+UB      = 2.115113E-18   LUB      = -8.560682E-26  WUB      = -1.030253E-25
+PUB     = 2.322958E-32   UC       = 1.210543E-10   LUC      = -1.545024E-17
+WUC     = -2.887305E-17  PUC      = 3.117964E-24   RDSW     = 170
+PRWB    = 0              PRWG     = 0              WR       = 1
+U0      = 0.03727462     LU0      = 1.599263E-09   WU0      = 1.173359E-09
+PU0     = -1.564659E-17  A0       = 0.3091393      LA0      = 1.066214E-07
+WA0     = 2.629372E-07   PA0      = -8.289604E-14  KETA     = -0.02983288
+LKETA   = 4.61416E-10    WKETA    = 4.190313E-09   PKETA    = -1.780756E-16
+A1      = 0              A2       = 0.99           AGS      = 0.05334493
+LAGS    = -1.533867E-08  WAGS     = -1.000348E-08  PAGS     = 4.601601E-15
+B0      = 0              B1       = 0              VOFF     = -0.1182942
+LVOFF   = -3.96108E-09   WVOFF    = -3.621182E-10  PVOFF    = -4.512629E-16
+NFACTOR = 1              CIT      = 0.0002910191   LCIT     = 9.613119E-11
+WCIT    = -2.500833E-12  PCIT     = 1.150396E-18   CDSC     = 0
+CDSCB   = 0              CDSCD    = 0              ETA0     = -0.0002621952
+LETA0   = 1.666098E-10   ETAB     = 0.00134878     LETAB    = -6.66439E-10
+DSUB    = 0              PCLM     = 1.151922       LPCLM    = 7.123444E-08
+WPCLM   = 1.124212E-07   PPCLM    = -1.625715E-16  PDIBLC1  = 1E-06
+PDIBLC2 = -0.00702563    LPDIBLC2 = 5.547383E-09   WPDIBLC2 = 7.858404E-10
+PPDIBLC2= -1.037308E-16  PDIBLCB  = 0.01           DROUT    = 0
+PSCBE1  = 4E+08          PSCBE2   = 1E-06          PVAG     = 0
+DELTA   = 0.01           ALPHA1   = 0.448150714    BETA0    = 11.59263
+KT1     = -0.1956458     LKT1     = -2.850022E-11  WKT1     = -1.855012E-08
+PKT1    = 3.119642E-15   KT2      = -0.03908098    LKT2     = 1.866495E-09
+WKT2    = 2.045007E-09   PKT2     = -7.724148E-17  AT       = 20000
+UTE     = -1.944663      LUTE     = 4.814495E-08   WUTE     = 1.328912E-08
+PUTE    = -6.112999E-15  UA1      = 1.224E-09      UB1      = -3.081556E-18
+LUB1    = 3.21842E-25    WUB1     = 1.455128E-25   PUB1     = -2.889132E-32
+UC1     = -2.392738E-10  LUC1     = 5.554002E-17   WUC1     = 4.98122E-17
+PUC1    = -1.054232E-23  KT1L     = 0              PRT      = 0
+CJ      = cjn            PB       = 0.6882682      MJ       = 0.3595262
+CJSW    = cjswn          PBSW     = 0.6882682      MJSW     = 0.2003879
+CJSWG   = cjswgn         PBSWG    = 0.6882682      MJSWG    = 0.43879
+CGDO    = cgon           CGSO     = cgon           TCJ      = 0.001040287
+TCJSW   = 0.000645489    TCJSWG   = 0.000645489    TPB      = 0.001554306    TPBSW    = 0.001554306    TPBSWG   = 0.001554306
+JS      = 8.38E-06       JSW      = 1.6E-11
+XTI     = 3              CAPMOD   = 3              NQSMOD   = 0
+XPART   = 1              CF       = 0
+CALCACM  = 1
+ALPHA0   = 0             DLC      = 3E-9           LLC     = -0.039         )


.MODEL pch.1            PMOS   (                    LMIN     = '1.2E-06-dxl'
+LMAX    = 2.1E-05        WMIN     = '1.01E-05-dxw' WMAX     = 0.000101
+NOIMOD  = 3              EF       = 1.25           AF       = 1.052          KF      = 6.100E-28
+LEVEL   = 49             TNOM     = 25             VERSION  = 3.2
+TOX     = toxp           XJ       = 1.7E-07        NCH      = 3.9E+17
+LLN     = -1             LWN      = 1              WLN      = 1
+WWN     = 1              LINT     = 1.5E-08        LL       = 0
+LW      = 0              LWL      = 0              WINT     = 1.5E-08
+WL      = 0              WW       = 0              WWL      = 0
+MOBMOD  = 1              BINUNIT  = 2              XL       = '-2E-08+dxl'
+XW      = '0+dxw'        DWG      = 0              DWB      = 0
+ACM     = 12             LDIF     = 9E-08          HDIF     = hdifp
+RSH     = 7.2            RD       = 0              RS       = 0
+VTH0    = '-0.4379811+dvthp' LVTH0    = -2.157551E-08  WVTH0    = 1.993098E-08
+PVTH0   = -3.253912E-14  K1       = 0.5232846      LK1      = 1.902614E-08
+WK1     = 1.2434E-07     PK1      = -2.513947E-15  K2       = 0.03910666
+LK2     = -5.042024E-09  WK2      = -3.541453E-08  PK2      = -4.457568E-15
+K3      = 0              DVT0     = 0              DVT1     = 0
+DVT2    = 0              DVT0W    = 0              DVT1W    = 0
+DVT2W   = 0              NLX      = 0              W0       = 0
+K3B     = 0              VSAT     = 151306.8       LVSAT    = -0.01300284
+UA      = 8.542461E-10   LUA      = -4.102831E-17  WUA      = 8.143675E-17
+PUA     = -3.518285E-21  UB       = 5.261967E-19   LUB      = -6.282183E-26
+WUB     = 1.155279E-24   PUB      = 5.160992E-30   UC       = -9.947074E-11
+LUC     = -1.021336E-17  WUC      = 1.107944E-16   PUC      = 3.027899E-22
+RDSW    = 530            PRWB     = 0              PRWG     = 0
+WR      = 1              U0       = 0.01091231     LU0      = -1.271836E-09
+WU0     = 8.47784E-10    PU0      = -2.243951E-16  A0       = 0.9876606
+LA0     = 1.192363E-07   WA0      = 5.132671E-07   PA0      = -4.412657E-13
+KETA    = 0.02612185     LKETA    = -1.707487E-09  WKETA    = 7.135232E-09
+PKETA   = -3.335716E-15  A1       = 0              A2       = 0.4
+AGS     = 0.02           B0       = 0              B1       = 0
+VOFF    = -0.1293096     LVOFF    = -7.007391E-10  WVOFF    = 1.923288E-08
+PVOFF   = -1.21129E-14   NFACTOR  = 1              CIT      = -0.0001
+CDSC    = 0              CDSCB    = 0              CDSCD    = 0
+ETA0    = 5E-05          ETAB     = -5E-05         DSUB     = 0
+PCLM    = 0.5738637      LPCLM    = 2.600568E-07   PDIBLC1  = 1E-06
+PDIBLC2 = 0.000477273    LPDIBLC2 = 5.201136E-09   PDIBLCB  = 0.01
+DROUT   = 0              PSCBE1   = 1.803977E+08   LPSCBE1  = 195.0426
+PSCBE2  = 5E-07          PVAG     = 0              DELTA    = 0.01
+ALPHA1  = 6.8730453846   BETA0    = 22.67827       KT1      = -0.2295955
+LKT1    = -1.534336E-08  KT2      = -0.02403249    LKT2     = -3.075286E-09
+AT      = 10000          UTE      = -0.8386704     LUTE     = 9.622102E-08
+UA1     = 1.224E-09      UB1      = -1.397786E-18  LUB1     = 4.807877E-26
+UC1     = -6.721975E-12  LUC1     = 2.087204E-17   KT1L     = 0
+PRT     = 0              CJ       = cjp            PB       = 0.895226
+MJ      = 0.4476         CJSW     = cjswp          PBSW     = 0.895226
+MJSW    = 0.3683619      CJSWG    = cjswgp         PBSWG    = 0.895226
+MJSWG   = 0.3683619      CGDO     = cgop           CGSO     = cgop
+TCJ     = 0.0009739001   TCJSW    = 0.0004130718   TCJSWG   = 0.0004130718   TPB      = 0.001572025
+TPBSW   = 0.001572025    TPBSWG  = 0.001572025    JS       = 4.92E-06       JSW      = 9E-10
+N       = 1              XTI      = 3              CAPMOD   = 3
+NQSMOD  = 0              XPART    = 1              CF       = 0
+TLEV    = 1              TLEVC    = 1              CALCACM  = 1
+SFVTFLAG= 0              ALPHA0   = 0              DLC      = 2E-9
+LLC     = -0.039        )


.MODEL pch.2            PMOS   (                    LMIN     = '5E-07-dxl'
+LMAX    = '1.2E-06-dxl'  WMIN     = '1.01E-05-dxw' WMAX     = 0.000101
+NOIMOD  = 3              EF       = 1.25           AF       = 1.052          KF      = 6.100E-28
+LEVEL   = 49             TNOM     = 25             VERSION  = 3.2
+TOX     = toxp           XJ       = 1.7E-07        NCH      = 3.9E+17
+LLN     = -1             LWN      = 1              WLN      = 1
+WWN     = 1              LINT     = 1.5E-08        LL       = 0
+LW      = 0              LWL      = 0              WINT     = 1.5E-08
+WL      = 0              WW       = 0              WWL      = 0
+MOBMOD  = 1              BINUNIT  = 2              XL       = '-2E-08+dxl'
+XW      = '0+dxw'        DWG      = 0              DWB      = 0
+ACM     = 12             LDIF     = 9E-08          HDIF     = hdifp
+RSH     = 7.2            RD       = 0              RS       = 0
+VTH0    = '-0.4469995+dvthp' LVTH0    = -1.120441E-08  WVTH0    = -4.790911E-08
+PVTH0   = 4.5477E-14     K1       = 0.5344138      LK1      = 6.227659E-09
+WK1     = 6.223506E-08   PK1      = 6.890672E-14   K2       = 0.03583825
+LK2     = -1.283352E-09  WK2      = -9.515445E-09  PK2      = -3.424151E-14
+K3      = 0              DVT0     = 0              DVT1     = 0
+DVT2    = 0              DVT0W    = 0              DVT1W    = 0
+DVT2W   = 0              NLX      = 0              W0       = 0
+K3B     = 0              VSAT     = 146428.6       LVSAT    = -0.007392862
+UA      = 8.910204E-10   LUA      = -8.331874E-17  WUA      = -3.674354E-15
+PUA     = 8.008744E-22   UB       = 3.976959E-19   LUB      = 8.495415E-26
+WUB     = 7.818968E-24   PUB      = -2.502251E-30  UC       = -1.224148E-10
+LUC     = 1.617235E-17   WUC      = 7.976175E-16   PUC      = -4.870566E-22
+RDSW    = 530            PRWB     = 0              PRWG     = 0
+WR      = 1              U0       = 0.01004072     LU0      = -2.69502E-10
+WU0     = 1.856901E-09   PU0      = -1.38488E-15   A0       = 1.023592
+LA0     = 7.791549E-08   WA0      = -1.932599E-07  PA0      = 3.712404E-13
+KETA    = 0.03089782     LKETA    = -7.199843E-09  WKETA    = 1.264146E-08
+PKETA   = -9.667874E-15  A1       = 0              A2       = 0.4
+AGS     = 0.02           B0       = 0              B1       = 0
+VOFF    = -0.1293548     LVOFF    = -6.487139E-10  WVOFF    = 1.137041E-08
+PVOFF   = -3.071056E-15  NFACTOR  = 1              CIT      = -0.0003062223
+LCIT    = 2.371556E-10   WCIT     = 1.151661E-10   PCIT     = -1.324412E-16
+CDSC    = 0              CDSCB    = 0              CDSCD    = 0
+ETA0    = 1.785714E-05   LETA0    = 3.696428E-11   ETAB     = -1.785714E-05
+LETAB   = -3.696428E-11  DSUB     = 0              PCLM     = 0.6714286
+LPCLM   = 1.478571E-07   PDIBLC1  = 1E-06          PDIBLC2  = 0.001785714
+LPDIBLC2= 3.696428E-09   PDIBLCB  = 0.01           DROUT    = 0
+PSCBE1  = 3.5E+08        PSCBE2   = 5E-07          PVAG     = 0
+DELTA   = 0.01           ALPHA1   = 6.8730453846   BETA0    = 22.67827
+KT1     = -0.2443071     LKT1     = 1.574977E-09   KT2      = -0.02755304
+LKT2    = 9.733445E-10   AT       = 10000          UTE      = -0.7721764
+LUTE    = 1.97529E-08    WUTE     = -1.467434E-07  PUTE     = 1.687549E-13
+UA1     = 1.224E-09      UB1      = -1.382905E-18  LUB1     = 3.096568E-26
+UC1     = -1.449268E-11  LUC1     = 2.980835E-17   KT1L     = 0
+PRT     = 0              CJ       = cjp            PB       = 0.895226
+MJ      = 0.4476         CJSW     = cjswp          PBSW     = 0.895226
+MJSW    = 0.3683619      CJSWG    = cjswgp         PBSWG    = 0.895226
+MJSWG   = 0.3683619      CGDO     = cgop           CGSO     = cgop
+TCJ     = 0.0009739001   TCJSW    = 0.0004130718   TCJSWG   = 0.0004130718   TPB      = 0.001572025
[...]
+ BF     = 2.715           NF     = 0.9931534       IS     = 9.0353E-18
+ ISE    = 9.0353E-18      ISC    = 9.0353E-18      NE     = 1.2977142
+ RB     = 36.063401       IRB    = 1.401332E-3     RBM    = 1.0965611
+ RE     = 1.3979963       IKF    = 1.72254E-3      NKF    = 0.477972
+ VAF    = 361.145         BR     = 0.0114433       NR     = 0.9908706
+ NC     = 0.9007513       RC     = 20.08           IKR    = 1.98804E-4
+ VAR    = 20.84541        XTI    = 3               EG     = 1.17
+ XTB    = 0               TRB1   = 1.493714E-3     TIRB1  = 1.375303E-5
+ TRM1   = 1.074565E-5     TRE1   = 1.068665E-4     TIKF1  = -3.912025E-3
+ TIKR1  = -3.93E-3        TRC1   = 8E-5            TBF1   = 4.91E-3
+ TBF2   = 1E-6            TNF1   = -1.0025E-4      TNE1   = 2.00234E-4
+ TVAF1  = -5E-3           TBR1   = -3.15E-3        TBR2   = 3.5E-5
+ TNC1   = 8.022278E-5     TNC2   = 0               TNR1   = -2.025978E-4
+ TNR2   = 0               CJE    = 1.22024E-13     VJE    = 0.895226
+ MJE    = 0.4405495       FC     = 0               CJC    = 6.837658E-14
+ VJC    = 0.5846489       MJC    = 0.3033243       TLEV   = 0
+ TLEVC  = 1               CTE    = 9.300197E-4     CTC    = 2.1425E-3
+ TVJE   = 1.572025E-3     TVJC   = 2.819E-3        TREF   = 25
+ SUBS   = 1               )
*
.MODEL PNP2 PNP (                                   LEVEL  = 1
+ BF     = 2.7551          NF     = 1.006853        IS     = 8.03515E-19
+ ISE    = 8.03515E-19     ISC    = 8.03515E-19     NE     = 1.2977142
+ RB     = 102.76734       IRB    = 1.401332E-3     RBM    = 1.0965611
+ RE     = 1.297997        IKF    = 3.02541E-4      NKF    = 0.427981
+ VAF    = 126.168         BR     = 1.3713E-3       NR     = 0.993671
+ NC     = 0.920748        RC     = 20.08           IKR    = 1.98804E-4
+ VAR    = 15.6151         XTI    = 3               EG     = 1.17
+ XTB    = 0               TRB1   = 1.493714E-3     TIRB1  = 1.375303E-5
+ TRM1   = 1.074565E-5     TRE1   = 1.068665E-4     TIKF1  = -4.31203E-3
+ TIKR1  = -3.93E-3        TRC1   = 8E-5            TBF1   = 5.85E-3
+ TBF2   = 3E-6            TNF1   = -1.056025E-4    TNE1   = 2.152336E-4
+ TVAF1  = -1E-3           TBR1   = -1.5E-3         TBR2   = 1.85E-5
+ TNC1   = 1.122198E-4     TNC2   = 0               TNR1   = -2.425601E-4
+ TNR2   = 0               CJE    = 6.4688E-15      VJE    = 0.895226
+ MJE    = 0.4205495       FC     = 0               CJC    = 2.562787E-14
+ VJC    = 0.5846489       MJC    = 0.2833243       TLEV   = 0
+ TLEVC  = 1               CTE    = 8.000197E-4     CTC    = 1.9025E-3
+ TVJE   = 1.572025E-3     TVJC   = 2.819E-3        TREF   = 25
+ SUBS   = 1               )
*
.ENDL BIP
*************************
*                       *
* 0.18um   3.3V bipolar *
*                       *
*************************
.LIB BIP3
*
.MODEL PNP10_3 PNP (                                  LEVEL  = 1
+ BF     = 2.715           NF     = 0.9931534       IS     = 9.0353E-18
+ ISE    = 9.0353E-18      ISC    = 9.0353E-18      NE     = 1.2977142
+ RB     = 33.063401       IRB    = 1.401332E-3     RBM    = 1.0965611
+ RE     = 1.3979963       IKF    = 2.05254E-3      NKF    = 0.477972
+ VAF    = 361.145         BR     = 9.0433E-3       NR     = 0.9908706
+ NC     = 0.9007513       RC     = 20.08           IKR    = 1.98804E-4
+ VAR    = 27.84541        XTI    = 3               EG     = 1.17
+ XTB    = 0               TRB1   = 1.493714E-3     TIRB1  = 1.375303E-5
+ TRM1   = 1.074565E-5     TRE1   = 1.068665E-4     TIKF1  = -3.912025E-3
+ TIKR1  = -3.93E-3        TRC1   = 8E-5            TBF1   = 5.11E-3
+ TBF2   = 1E-6            TNF1   = -1.0025E-4      TNE1   = 2.00234E-4
+ TVAF1  = -5E-3           TBR1   = -1.95E-3        TBR2   = 2.25E-5
+ TNC1   = 8.022278E-5     TNC2   = 0               TNR1   = -2.025978E-4
+ TNR2   = 0               CJE    = 1.124556E-13    VJE    = 0.8049122
+ MJE    = 0.3845495       FC     = 0               CJC    = 6.353976E-14
+ VJC    = 0.5846489       MJC    = 0.2883243       TLEV   = 0
+ TLEVC  = 1               CTE    = 9.700197E-4     CTC    = 1.9425E-3
+ TVJE   = 1.625007E-3     TVJC   = 2.819E-3        TREF   = 25
+ SUBS   = 1               )
*
.MODEL PNP5_3 PNP (                                   LEVEL  = 1
+ BF     = 2.725           NF     = 0.9928534       IS     = 2.5351E-18
+ ISE    = 2.5351E-18      ISC    = 2.5351E-18      NE     = 1.3977142
+ RB     = 54.76734        IRB    = 1.401332E-3     RBM    = 1.0965611
+ RE     = 1.3979963       IKF    = 1.1254E-3       NKF    = 0.477972
+ VAF    = 372.731         BR     = 3.5513E-3       NR     = 0.993881
+ NC     = 0.98076         RC     = 20.08           IKR    = 1.98804E-4
+ VAR    = 22.44541        XTI    = 3               EG     = 1.17
+ XTB    = 0               TRB1   = 1.493714E-3     TIRB1  = 1.375303E-5
+ TRM1   = 1.074565E-5     TRE1   = 1.068665E-4     TIKF1  = -2.752025E-3
+ TIKR1  = -3.93E-3        TRC1   = 8E-5            TBF1   = 5.2E-3
+ TBF2   = 1.1E-6          TNF1   = -1.056025E-4    TNE1   = 2.152336E-4
+ TVAF1  = -4E-5           TBR1   = -1.01E-3        TBR2   = 1.3E-5
+ TNC1   = 1.122277E-4     TNC2   = 0               TNR1   = -1.026101E-4
+ TNR2   = 0               CJE    = 3.034505E-14    VJE    = 0.8049122
+ MJE    = 0.3745495       FC     = 0               CJC    = 3.728498E-14
+ VJC    = 0.5846489       MJC    = 0.2783243       TLEV   = 0
+ TLEVC  = 1               CTE    = 9.500197E-4     CTC    = 2.0325E-3
+ TVJE   = 1.625007E-3     TVJC   = 3.009E-3        TREF   = 25
+ SUBS   = 1               )
*
.MODEL PNP2_3 PNP (                                   LEVEL  = 1
+ BF     = 2.7351          NF     = 1.006853        IS     = 8.03515E-19
+ ISE    = 8.03515E-19     ISC    = 8.03515E-19     NE     = 1.2977142
+ RB     = 102.76734       IRB    = 1.401332E-3     RBM    = 1.0965611
+ RE     = 1.297997        IKF    = 4.02541E-4      NKF    = 0.427981
+ VAF    = 126.168         BR     = 1.1153E-3       NR     = 1.013671
+ NC     = 0.920748        RC     = 20.08           IKR    = 1.98804E-4
+ VAR    = 20.0151         XTI    = 3               EG     = 1.17
+ XTB    = 0               TRB1   = 1.493714E-3     TIRB1  = 1.375303E-5
+ TRM1   = 1.074565E-5     TRE1   = 1.068665E-4     TIKF1  = -4.31203E-3
+ TIKR1  = -3.93E-3        TRC1   = 8E-5            TBF1   = 5.85E-3
+ TBF2   = 3E-6            TNF1   = -1.056025E-4    TNE1   = 2.152336E-4
+ TVAF1  = -1E-3           TBR1   = -1.5E-3         TBR2   = 1.65E-5
+ TNC1   = 1.122198E-4     TNC2   = 0               TNR1   = -2.425601E-4
+ TNR2   = 0               CJE    = 5.92616E-15     VJE    = 0.8049122
+ MJE    = 0.3495495       FC     = 0               CJC    = 2.432423E-14
+ VJC    = 0.5846489       MJC    = 0.2673243       TLEV   = 0
+ TLEVC  = 1               CTE    = 9.000197E-4     CTC    = 1.9025E-3
+ TVJE   = 1.625007E-3     TVJC   = 2.959E-3        TREF   = 25
+ SUBS   = 1               )
*
.ENDL BIP3
*
*************************
*                       *
* 0.18um   1.8V diode   *
*                       *
*************************
*
.LIB DIO
*
.MODEL NDIO D (                                     LEVEL  = 3
+ IS     = 8.38E-6         RS     = 1.0E-10         N      = 1.3217
+ BV     = 10.72           IBV    = 1E-3            IK     = 1E20
+ IKR    = 1E10            JSW    = 1.24E-11        AREA   = 7.5E-8
+ PJ     = 1.1E-3          CJ     = 1.000266E-3     PB     = 0.6882682
+ MJ     = 0.3595262       CJSW   = 2.040547E-10    PHP    = 0.6882682
+ MJSW   = 0.2003879       TLEV   = 1               EG     = 1.17
+ XTI    = 3               TCV    = -9.3E-4         TRS    = 1.62E-3
+ TLEVC  = 1               CTA    = 1.040287E-3     CTP    = 6.45489E-4
+ TPB    = 1.554306E-3     TPHP   = 1.554306E-3     TREF   = 25
+ FC     = 0               FCS    = 0               )
*
.MODEL PDIO D (                                     LEVEL  = 3
+ IS     = 4.92E-6         RS     = 1.0E-10         N      = 1.25
+ BV     = 10.2            IBV    = 1E-3            IK     = 1E20
+ IKR    = 1E10            JSW    = 1.02E-11        AREA   = 7.5E-8
+ PJ     = 1.1E-3          CJ     = 1.121E-3        PB     = 0.895226
+ MJ     = 0.4476          CJSW   = 2.481E-10       PHP    = 0.895226
+ MJSW   = 0.3683619       TLEV   = 1               EG     = 1.17
+ XTI    = 3               TCV    = -8.8E-4         TRS    = 1.2E-4
+ TLEVC  = 1               CTA    = 9.739001E-4     CTP    = 4.130718E-4
+ TPB    = 1.572025E-3     TPHP   = 1.572025E-3     TREF   = 25
+ FC     = 0               FCS    = 0               )
*
.MODEL NWDIO D (                                    LEVEL  = 3
+ IS     = 1.55E-5         RS     = 1.0E-10         N      = 1.38
+ BV     = 14.75           IBV    = 1E-3            IK     = 1E20
+ IKR    = 1E10            JSW    = 4.75E-11        AREA   = 7.5E-8
+ PJ     = 1.1E-3          CJ     = 1.337566E-4     PB     = 0.5846489
+ MJ     = 0.3883243       CJSW   = 5.333577E-10    PHP    = 0.5846489
+ MJSW   = 0.2345684       TLEV   = 1               EG     = 1.17
+ XTI    = 3               TCV    = -9.6E-4         TRS    = 1.125E-3
+ TLEVC  = 1               CTA    = 2.8425E-3       CTP    = 1.5284E-3
+ TPB    = 2.819E-3        TPHP   = 2.819E-3        TREF   = 25
+ FC     = 0               FCS    = 0               )
*
.ENDL DIO
*
*********************************
*                               *
* 0.18um   3.3V and ESD diode   *
*                               *
*********************************
*
.LIB DIO3
*
.MODEL NDIO_3 D (                                     LEVEL  = 3
+ IS     = 7.93E-6         RS     = 1.0E-10         N      = 1.3217
+ BV     = 10.84           IBV    = 1E-3            IK     = 1E20
+ IKR    = 1E10            JSW    = 1.74E-11        AREA   = 7.5E-8
+ PJ     = 1.1E-3          CJ     = 8.964788E-4     PB     = 0.7076023
+ MJ     = 0.3259624       CJSW   = 2.50664E-10     PHP    = 0.7076023
+ MJSW   = 0.1513672       TLEV   = 1               EG     = 1.17
+ XTI    = 3               TCV    = -8.33E-4        TRS    = 1.62E-3
+ TLEVC  = 1               CTA    = 9.923959E-4     CTP    = 5.019466E-4
+ TPB    = 1.687207E-3     TPHP   = 1.687207E-3     TREF   = 25
+ FC     = 0               FCS    = 0               )
*
.MODEL PDIO_3 D (                                     LEVEL  = 3
+ IS     = 3.102E-6        RS     = 1.0E-10         N      = 1.25
+ BV     = 10.3            IBV    = 1E-3            IK     = 1E20
+ IKR    = 1E10            JSW    = 1.02E-11        AREA   = 7.5E-8
+ PJ     = 1.1E-3          CJ     = 1.03531E-3      PB     = 0.8049122
+ MJ     = 0.3954951       CJSW   = 2.23115E-10     PHP    = 0.8049122
+ MJSW   = 0.2573111       TLEV   = 1               EG     = 1.17
+ XTI    = 3               TCV    = -8.1E-4         TRS    = 1.2E-4
+ TLEVC  = 1               CTA    = 9.940197E-4     CTP    = 6.908749E-4
+ TPB    = 1.625007E-3     TPHP   = 1.625007E-3     TREF   = 25
+ FC     = 0               FCS    = 0               )
*
.MODEL NWDIO_3 D (                                    LEVEL  = 3
+ IS     = 2.05E-5         RS     = 1.0E-10         N      = 1.38
+ BV     = 14.55           IBV    = 1E-3            IK     = 1E20
+ IKR    = 1E10            JSW    = 6.17E-11        AREA   = 7.5E-8
+ PJ     = 1.1E-3          CJ     = 1.163383E-4     PB     = 0.5529009
+ MJ     = 0.3581039       CJSW   = 5.274555E-10    PHP    = 0.5529009
+ MJSW   = 0.2203          TLEV   = 1               EG     = 1.17
+ XTI    = 3               TCV    = -9.6E-4         TRS    = 1.125E-3
+ TLEVC  = 1               CTA    = 2.8425E-3       CTP    = 1.5284E-3
+ TPB    = 2.819E-3        TPHP   = 2.819E-3        TREF   = 25
+ FC     = 0               FCS    = 0               )
*
***************************************************************
*                                                             *
*                                                             *
*                      MODEL OF ESD DIODE                     *
*                                                             *
*                                                             *
*                                                             *
***************************************************************
.MODEL ENDIO D (                                     LEVEL  = 3
+ CJ     = 1.416999E-3     PB     = 0.6798575
+ MJ     = 0.3357974       TREF   = 25
+ FC     = 0               FCS    = 0               )
*
.ENDL DIO3

**************************************************************************
*
*   0.18um  resistor model
*
**************************************************************************
*
.lib RES
**************************************************************************
.subckt rnod n1 n2 l=length w=width
.param rsh=6.8 dw=-0.165u ptc1=3.35e-3 ptc2=4.31e-7 pvc1=7.56e-5 pvc2=1.24e-3 pt='temper'
.param tfac='1.0+ptc1*(pt-25.0)+ptc2*(pt-25.0)*(pt-25.0)'
r1 n1 n2 'rsh*l/(w-dw)*(1+pvc1*abs(v(n2,n1))+pvc2*v(n2,n1)*v(n2,n1))*tfac'
.ends rnod

.subckt rnodw n1 n2 l=length w=width
.param rsh=4.1 dw=-0.165u ptc1=3.35e-3 ptc2=4.31e-7 pvc1=7.56e-5 pvc2=1.24e-3 pt='temper'
.param tfac='1.0+ptc1*(pt-25.0)+ptc2*(pt-25.0)*(pt-25.0)'
r1 n1 n2 'rsh*l/(w-dw)*(1+pvc1*abs(v(n2,n1))+pvc2*v(n2,n1)*v(n2,n1))*tfac'
.ends rnodw

.subckt rpod n1 n2 l=length w=width
.param rsh=7.2 dw=-0.148u ptc1=3.44e-3 ptc2=5.02e-7 pvc1=-2.51e-4 pvc2=1.03e-3 pt='temper'
.param tfac='1.0+ptc1*(pt-25.0)+ptc2*(pt-25.0)*(pt-25.0)'
r1 n1 n2 'rsh*l/(w-dw)*(1+pvc1*abs(v(n2,n1))+pvc2*v(n2,n1)*v(n2,n1))*tfac'
.ends rpod

.subckt rpodw n1 n2 l=length w=width
.param rsh=4.4 dw=-0.148u ptc1=3.44e-3 ptc2=5.02e-7 pvc1=-2.51e-4 pvc2=1.03e-3 pt='temper'
.param tfac='1.0+ptc1*(pt-25.0)+ptc2*(pt-25.0)*(pt-25.0)'
r1 n1 n2 'rsh*l/(w-dw)*(1+pvc1*abs(v(n2,n1))+pvc2*v(n2,n1)*v(n2,n1))*tfac'
.ends rpodw

.subckt rnodrpo n1 n2 l=length w=width
.param rsh=59 dw=0.0u ptc1=1.47e-3 ptc2=8.32e-7 pvc1=7.55e-4 pvc2=1.97e-4 pt='temper'
.param tfac='1.0+ptc1*(pt-25.0)+ptc2*(pt-25.0)*(pt-25.0)'
r1 n1 n2 'rsh*l/(w-dw)*(1+pvc1*abs(v(n2,n1))+pvc2*v(n2,n1)*v(n2,n1))*tfac'
.ends rnodrpo

.subckt rpodrpo n1 n2 l=length w=width
.param rsh=133 dw=0.00u ptc1=1.43e-3 ptc2=7.82e-7 pvc1=-1.19e-3 pvc2=-1.80e-4 pt='temper'
.param tfac='1.0+ptc1*(pt-25.0)+ptc2*(pt-25.0)*(pt-25.0)'
r1 n1 n2 'rsh*l/(w-dw)*(1+pvc1*abs(v(n2,n1))+pvc2*v(n2,n1)*v(n2,n1))*tfac'
.ends rpodrpo

.subckt rnwod n1 n2 l=length w=width
.param rsh=440 dw=0.141u ptc1=3.68e-3 ptc2=9.54e-6 pvc1=2.77e-3 pvc2=2.49e-4 pt='temper'
.param tfac='1.0+ptc1*(pt-25.0)+ptc2*(pt-25.0)*(pt-25.0)'
r1 n1 n2 'rsh*l/(w-dw)*(1+pvc1*abs(v(n2,n1))+pvc2*v(n2,n1)*v(n2,n1))*tfac'
.ends rnwod

.subckt rnwsti n1 n2 l=length w=width
.param rsh=927 dw=0.182u ptc1=2.97e-3 ptc2=1.10e-5 pvc1=8.06e-3 pvc2=-3.32e-4 pt='temper'
.param tfac='1.0+ptc1*(pt-25.0)+ptc2*(pt-25.0)*(pt-25.0)'
r1 n1 n2 'rsh*l/(w-dw)*(1+pvc1*abs(v(n2,n1))+pvc2*v(n2,n1)*v(n2,n1))*tfac'
.ends rnwsti

.subckt rnpo1 n1 n2 l=length w=width
.param rsh=7.4 dw=-0.065u ptc1=2.92e-3 ptc2=2.66e-7 pvc1=1.35e-3 pvc2=7.15e-3 pt='temper'
.param tfac='1.0+ptc1*(pt-25.0)+ptc2*(pt-25.0)*(pt-25.0)'
r1 n1 n2 'rsh*l/(w-dw)*(1+pvc1*abs(v(n2,n1))+pvc2*v(n2,n1)*v(n2,n1))*tfac'
.ends rnpo1

.subckt rnpo1w n1 n2 l=length w=width
.param rsh=5.7 dw=-0.065u ptc1=2.92e-3 ptc2=2.66e-7 pvc1=1.35e-3 pvc2=7.15e-3 pt='temper'
.param tfac='1.0+ptc1*(pt-25.0)+ptc2*(pt-25.0)*(pt-25.0)'
r1 n1 n2 'rsh*l/(w-dw)*(1+pvc1*abs(v(n2,n1))+pvc2*v(n2,n1)*v(n2,n1))*tfac'
.ends rnpo1w

.subckt rppo1 n1 n2 l=length w=width
.param rsh=7.8 dw=-0.051u ptc1=2.88e-3 ptc2=5.01e-7 pvc1=-7.89e-4 pvc2=6.19e-3 pt='temper'
.param tfac='1.0+ptc1*(pt-25.0)+ptc2*(pt-25.0)*(pt-25.0)'
r1 n1 n2 'rsh*l/(w-dw)*(1+pvc1*abs(v(n2,n1))+pvc2*v(n2,n1)*v(n2,n1))*tfac'
.ends rppo1

.subckt rppo1w n1 n2 l=length w=width
.param rsh=6.7 dw=-0.051u ptc1=2.88e-3 ptc2=5.01e-7 pvc1=-7.89e-4 pvc2=6.19e-3 pt='temper'
.param tfac='1.0+ptc1*(pt-25.0)+ptc2*(pt-25.0)*(pt-25.0)'
r1 n1 n2 'rsh*l/(w-dw)*(1+pvc1*abs(v(n2,n1))+pvc2*v(n2,n1)*v(n2,n1))*tfac'
.ends rppo1w

.SUBCKT rnpo1rpo n1 n2 l=length w=width
.param rx=1.477e-5 rgrain=37.16 rp=292 dl=0.07616e-6 dw=0.08333e-6 rc=7.8 nc=2
.param pt='temper'
.param pvcx1=3.785e-1 pvcx2=8.434e-6 pvcx3=-1.430 ptcx1=-2.278e-3 ptcx2=-21.29e-6
.param pvcp1=-2.843e-2 pvcp2=1.496e-5 pvcp3=-2.100 ptcp1=-1.102e-3 ptcp2=1.747e-6
.param pvcg1=2.527e-1 pvcg2=6.918e-6 pvcg3=-1.283 ptcg1=4.235e-3 ptcg2=-6.211e-6
.param tfacx='1.0+ptcx1*(pt-25.0)+ptcx2*(pt-25.0)*(pt-25.0)'
.param tfacp='1.0+ptcp1*(pt-25.0)+ptcp2*(pt-25.0)*(pt-25.0)'
.param tfacg='1.0+ptcg1*(pt-25.0)+ptcg2*(pt-25.0)*(pt-25.0)'
rc1 n1 5 'rc/nc'
rg1 5 7 'rgrain*tfacg*(1+pvcg1*(tanh(pvcg2*abs(v(3,4)/(l-dl))+pvcg3)-tanh(pvcg3)))'
rx1 7 3 'rx/(w-dw)*tfacx*(1+pvcx1*(tanh(pvcx2*abs(v(3,4)/(l-dl))+pvcx3)-tanh(pvcx3)))'
rp1 3 4 'rp*(l-dl)/(w-dw)*tfacp*(1+pvcp1*(tanh(pvcp2*abs(v(3,4)/(l-dl))+pvcp3)-tanh(pvcp3)))'
rx2 4 6 'rx/(w-dw)*tfacx*(1+pvcx1*(tanh(pvcx2*abs(v(3,4)/(l-dl))+pvcx3)-tanh(pvcx3)))'
rg2 6 8 'rgrain*tfacg*(1+pvcg1*(tanh(pvcg2*abs(v(3,4)/(l-dl))+pvcg3)-tanh(pvcg3)))'
rc2 8 n2 'rc/nc'
.ENDS rnpo1rpo

.SUBCKT rppo1rpo n1 n2 l=length w=width
.param rx=6.752e-5 rgrain=39.411 rp=311 dl=0.04696e-6 dw=0.06061e-6 rc=7.8 nc=2
.param pt='temper'
.param pvcx1=-1.311e-2 pvcx2=2.171e-5 pvcx3=-3.211 ptcx1=-1.790e-3 ptcx2=-7.245e-6
.param pvcp1=-5.405e-3 pvcp2=2.134e-5 pvcp3=-3.820 ptcp1=-13.80e-5 ptcp2=581.1e-9
.param pvcg1=6.667e-2 pvcg2=4.141e-6 pvcg3=0.140 ptcg1=2.979e-3 ptcg2=-2.295e-6
.param tfacx='1.0+ptcx1*(pt-25.0)+ptcx2*(pt-25.0)*(pt-25.0)'
.param tfacp='1.0+ptcp1*(pt-25.0)+ptcp2*(pt-25.0)*(pt-25.0)'
.param tfacg='1.0+ptcg1*(pt-25.0)+ptcg2*(pt-25.0)*(pt-25.0)'
rc1 n1 5 'rc/nc'
rg1 5 7 'rgrain*tfacg*(1+pvcg1*(tanh(pvcg2*abs(v(3,4)/(l-dl))+pvcg3)-tanh(pvcg3)))'
rx1 7 3 'rx/(w-dw)*tfacx*(1+pvcx1*(tanh(pvcx2*abs(v(3,4)/(l-dl))+pvcx3)-tanh(pvcx3)))'
rp1 3 4 'rp*(l-dl)/(w-dw)*tfacp*(1+pvcp1*(tanh(pvcp2*abs(v(3,4)/(l-dl))+pvcp3)-tanh(pvcp3)))'
rx2 4 6 'rx/(w-dw)*tfacx*(1+pvcx1*(tanh(pvcx2*abs(v(3,4)/(l-dl))+pvcx3)-tanh(pvcx3)))'
rg2 6 8 'rgrain*tfacg*(1+pvcg1*(tanh(pvcg2*abs(v(3,4)/(l-dl))+pvcg3)-tanh(pvcg3)))'
rc2 8 n2 'rc/nc'
.ENDS rppo1rpo

.subckt rm1 n1 n2 l=length w=width
.param rsh=0.078 dw=0.03u ptc1=3.43e-3 ptc2=-1.08e-6 pvc1=0 pvc2=0 pt='temper'
.param tfac='1.0+ptc1*(pt-25.0)+ptc2*(pt-25.0)*(pt-25.0)'
r1 n1 n2 'rsh*l/(w-dw)*(1+pvc1*abs(v(n2,n1))+pvc2*v(n2,n1)*v(n2,n1))*tfac'
.ends rm1

.subckt rm2 n1 n2 l=length w=width
.param rsh=0.078 dw=0.03u ptc1=3.43e-3 ptc2=-1.08e-6 pvc1=0 pvc2=0 pt='temper'
.param tfac='1.0+ptc1*(pt-25.0)+ptc2*(pt-25.0)*(pt-25.0)'
r1 n1 n2 'rsh*l/(w-dw)*(1+pvc1*abs(v(n2,n1))+pvc2*v(n2,n1)*v(n2,n1))*tfac'
.ends rm2

.subckt rm3 n1 n2 l=length w=width
.param rsh=0.078 dw=0.03u ptc1=3.43e-3 ptc2=-1.08e-6 pvc1=0 pvc2=0 pt='temper'
.param tfac='1.0+ptc1*(pt-25.0)+ptc2*(pt-25.0)*(pt-25.0)'
r1 n1 n2 'rsh*l/(w-dw)*(1+pvc1*abs(v(n2,n1))+pvc2*v(n2,n1)*v(n2,n1))*tfac'
.ends rm3

.subckt rm4 n1 n2 l=length w=width
.param rsh=0.078 dw=0.03u ptc1=3.43e-3 ptc2=-1.08e-6 pvc1=0 pvc2=0 pt='temper'
.param tfac='1.0+ptc1*(pt-25.0)+ptc2*(pt-25.0)*(pt-25.0)'
r1 n1 n2 'rsh*l/(w-dw)*(1+pvc1*abs(v(n2,n1))+pvc2*v(n2,n1)*v(n2,n1))*tfac'
.ends rm4

.subckt rm5 n1 n2 l=length w=width
.param rsh=0.078 dw=0.03u ptc1=3.43e-3 ptc2=-1.08e-6 pvc1=0 pvc2=0 pt='temper'
.param tfac='1.0+ptc1*(pt-25.0)+ptc2*(pt-25.0)*(pt-25.0)'
r1 n1 n2 'rsh*l/(w-dw)*(1+pvc1*abs(v(n2,n1))+pvc2*v(n2,n1)*v(n2,n1))*tfac'
.ends rm5

.subckt rm6 n1 n2 l=length w=width
.param rsh=0.036 dw=0.04u ptc1=3.60e-3 ptc2=-1.16e-7 pvc1=0 pvc2=0 pt='temper'
.param tfac='1.0+ptc1*(pt-25.0)+ptc2*(pt-25.0)*(pt-25.0)'
r1 n1 n2 'rsh*l/(w-dw)*(1+pvc1*abs(v(n2,n1))+pvc2*v(n2,n1)*v(n2,n1))*tfac'
.ends rm6

.endl RES
